<?xml version="1.0" encoding="UTF-8"?>

<!-- generated on 2025-04-16 00:47:12 by Eclipse SUMO sumo Version 1.22.0
-->

<sumoConfiguration xmlns:xsi="http://www.w3.org/2001/XMLSchema-instance" xsi:noNamespaceSchemaLocation="http://sumo.dlr.de/xsd/sumoConfiguration.xsd">

<input>
        <net-file value="osmwithdetectors.net.xml"/>
        <route-files value="osm.rou.xml"/>
	<additional-files value="detectors.add.xml"/>
	
    </input>

</sumoConfiguration>
