<?xml version="1.0" encoding="UTF-8"?>

<!-- generated on 2025-04-05 00:34:30 by Eclipse SUMO netedit Version 1.22.0
<neteditConfiguration xmlns:xsi="http://www.w3.org/2001/XMLSchema-instance" xsi:noNamespaceSchemaLocation="http://sumo.dlr.de/xsd/neteditConfiguration.xsd">

    <input>
        <sumocfg-file value="/Users/nedasarbalavandeymir/sumo/Traci4/Test1.sumocfg"/>
        <route-files value="/Users/nedasarbalavandeymir/sumo/Traci4/Test1.rou.xml"/>
        <sumo-net-file value="/Users/nedasarbalavandeymir/sumo/Traci4/Test1.net.xml"/>
    </input>

    <output>
        <output-file value="/Users/nedasarbalavandeymir/sumo/Traci4/Test1.net.xml"/>
    </output>

    <processing>
        <offset.disable-normalization value="true"/>
    </processing>

    <junctions>
        <no-turnarounds value="true"/>
    </junctions>

    <netedit>
        <new-network value="false"/>
    </netedit>

</neteditConfiguration>
-->

<net version="1.20" junctionCornerDetail="5" limitTurnSpeed="5.50" xmlns:xsi="http://www.w3.org/2001/XMLSchema-instance" xsi:noNamespaceSchemaLocation="http://sumo.dlr.de/xsd/net_file.xsd">

    <location netOffset="0.00,0.00" convBoundary="-66.08,-14.34,38.28,25.44" origBoundary="10000000000.00,10000000000.00,-10000000000.00,-10000000000.00" projParameter="!"/>

    <edge id=":Node1_0" function="internal">
        <lane id=":Node1_0_0" index="0" speed="6.08" length="7.81" shape="-62.84,27.04 -64.97,26.73 -66.47,25.82 -67.37,24.30 -67.64,22.17"/>
    </edge>
    <edge id=":Node1_1" function="internal">
        <lane id=":Node1_1_0" index="0" speed="3.90" length="2.60" shape="-64.44,22.22 -64.35,22.92 -64.05,23.43 -63.55,23.74 -62.84,23.84"/>
    </edge>
    <edge id=":Node2_0" function="internal">
        <lane id=":Node2_0_0" index="0" speed="13.89" length="14.43" shape="-9.50,27.02 -23.93,27.04"/>
    </edge>
    <edge id=":Node2_1" function="internal">
        <lane id=":Node2_1_0" index="0" speed="8.28" length="3.95" shape="-9.50,27.02 -13.24,26.47 -13.39,26.38"/>
    </edge>
    <edge id=":Node2_6" function="internal">
        <lane id=":Node2_6_0" index="0" speed="8.28" length="10.38" shape="-13.39,26.38 -16.01,24.80 -17.82,22.02 -18.67,18.12"/>
    </edge>
    <edge id=":Node2_2" function="internal">
        <lane id=":Node2_2_0" index="0" speed="6.84" length="9.46" shape="-15.48,17.85 -14.92,20.47 -13.74,22.34 -11.94,23.45 -9.51,23.82"/>
    </edge>
    <edge id=":Node2_3" function="internal">
        <lane id=":Node2_3_0" index="0" speed="7.86" length="14.52" shape="-15.48,17.85 -15.72,21.87 -17.21,24.74 -19.95,26.46 -23.93,27.04"/>
    </edge>
    <edge id=":Node2_4" function="internal">
        <lane id=":Node2_4_0" index="0" speed="6.33" length="9.04" shape="-23.93,23.84 -21.45,23.48 -19.75,22.41 -18.82,20.62 -18.67,18.12"/>
    </edge>
    <edge id=":Node2_5" function="internal">
        <lane id=":Node2_5_0" index="0" speed="13.89" length="14.42" shape="-23.93,23.84 -9.51,23.82"/>
    </edge>
    <edge id=":Node3_0" function="internal">
        <lane id=":Node3_0_0" index="0" speed="6.08" length="7.71" shape="39.76,22.13 39.46,24.22 38.56,25.72 37.07,26.62 34.98,26.92"/>
    </edge>
    <edge id=":Node3_1" function="internal">
        <lane id=":Node3_1_0" index="0" speed="3.90" length="2.57" shape="34.97,23.72 35.66,23.62 36.16,23.32 36.46,22.82 36.56,22.12"/>
    </edge>
    <edge id=":Node4_0" function="internal">
        <lane id=":Node4_0_0" index="0" speed="3.91" length="2.54" shape="-62.44,-11.77 -63.13,-11.66 -63.62,-11.37 -63.92,-10.87 -64.03,-10.19"/>
    </edge>
    <edge id=":Node4_1" function="internal">
        <lane id=":Node4_1_0" index="0" speed="6.08" length="7.62" shape="-67.23,-10.23 -66.91,-12.29 -66.01,-13.76 -64.53,-14.66 -62.47,-14.97"/>
    </edge>
    <edge id=":Node5_0" function="internal">
        <lane id=":Node5_0_0" index="0" speed="6.81" length="9.41" shape="-20.68,-6.17 -21.24,-8.76 -22.42,-10.61 -24.23,-11.71 -26.66,-12.06"/>
    </edge>
    <edge id=":Node5_1" function="internal">
        <lane id=":Node5_1_0" index="0" speed="7.88" length="14.47" shape="-20.68,-6.17 -20.44,-10.17 -18.96,-13.04 -16.24,-14.78 -12.28,-15.40"/>
    </edge>
    <edge id=":Node5_2" function="internal">
        <lane id=":Node5_2_0" index="0" speed="6.36" length="9.04" shape="-12.25,-12.20 -14.72,-11.81 -16.42,-10.72 -17.34,-8.93 -17.49,-6.43"/>
    </edge>
    <edge id=":Node5_3" function="internal">
        <lane id=":Node5_3_0" index="0" speed="13.89" length="14.41" shape="-12.25,-12.20 -26.66,-12.06"/>
    </edge>
    <edge id=":Node5_4" function="internal">
        <lane id=":Node5_4_0" index="0" speed="13.89" length="14.40" shape="-26.68,-15.26 -12.28,-15.40"/>
    </edge>
    <edge id=":Node5_5" function="internal">
        <lane id=":Node5_5_0" index="0" speed="8.25" length="3.94" shape="-26.68,-15.26 -22.94,-14.73 -22.80,-14.65"/>
    </edge>
    <edge id=":Node5_6" function="internal">
        <lane id=":Node5_6_0" index="0" speed="8.25" length="10.36" shape="-22.80,-14.65 -20.16,-13.09 -18.34,-10.32 -17.49,-6.43"/>
    </edge>
    <edge id=":Node6_0" function="internal">
        <lane id=":Node6_0_0" index="0" speed="6.08" length="7.82" shape="35.02,-15.90 37.15,-15.62 38.66,-14.73 39.57,-13.22 39.87,-11.09"/>
    </edge>
    <edge id=":Node6_1" function="internal">
        <lane id=":Node6_1_0" index="0" speed="3.90" length="2.61" shape="36.67,-11.10 36.57,-11.81 36.27,-12.31 35.76,-12.61 35.05,-12.70"/>
    </edge>

    <edge id="-E1" from="Node3" to="Node2" priority="-1">
        <lane id="-E1_0" index="0" speed="13.89" length="44.48" shape="34.98,26.92 -9.50,27.02"/>
    </edge>
    <edge id="-E2" from="Node6" to="Node3" priority="-1">
        <lane id="-E2_0" index="0" speed="13.89" length="33.22" shape="39.87,-11.09 39.76,22.13"/>
    </edge>
    <edge id="-E3" from="Node5" to="Node6" priority="-1">
        <lane id="-E3_0" index="0" speed="13.89" length="47.30" shape="-12.28,-15.40 35.02,-15.90"/>
    </edge>
    <edge id="-E4" from="Node4" to="Node5" priority="-1">
        <lane id="-E4_0" index="0" speed="13.89" length="35.78" shape="-62.47,-14.97 -26.68,-15.26"/>
    </edge>
    <edge id="-E5" from="Node1" to="Node4" priority="-1">
        <lane id="-E5_0" index="0" speed="13.89" length="32.41" shape="-67.64,22.17 -67.23,-10.23"/>
    </edge>
    <edge id="E1" from="Node2" to="Node3" priority="-1">
        <lane id="E1_0" index="0" speed="13.89" length="44.48" shape="-9.51,23.82 34.97,23.72"/>
    </edge>
    <edge id="E2" from="Node3" to="Node6" priority="-1">
        <lane id="E2_0" index="0" speed="13.89" length="33.22" shape="36.56,22.12 36.67,-11.10"/>
    </edge>
    <edge id="E3" from="Node6" to="Node5" priority="-1">
        <lane id="E3_0" index="0" speed="13.89" length="47.30" shape="35.05,-12.70 -12.25,-12.20"/>
    </edge>
    <edge id="E4" from="Node5" to="Node4" priority="-1">
        <lane id="E4_0" index="0" speed="13.89" length="35.78" shape="-26.66,-12.06 -62.44,-11.77"/>
    </edge>
    <edge id="E5" from="Node4" to="Node1" priority="-1">
        <lane id="E5_0" index="0" speed="13.89" length="32.41" shape="-64.03,-10.19 -64.44,22.22"/>
    </edge>
    <edge id="Node1-2-EB" from="Node1" to="Node2" priority="-1">
        <lane id="Node1-2-EB_0" index="0" speed="13.89" length="38.91" shape="-62.84,23.84 -23.93,23.84"/>
    </edge>
    <edge id="Node1-2-WB" from="Node2" to="Node1" priority="-1">
        <lane id="Node1-2-WB_0" index="0" speed="13.89" length="38.91" shape="-23.93,27.04 -62.84,27.04"/>
    </edge>
    <edge id="Node2-5-NB" from="Node5" to="Node2" priority="-1">
        <lane id="Node2-5-NB_0" index="0" speed="13.89" length="24.37" shape="-17.49,-6.43 -15.48,17.85"/>
    </edge>
    <edge id="Node2-5-SB" from="Node2" to="Node5" priority="-1">
        <lane id="Node2-5-SB_0" index="0" speed="13.89" length="24.37" shape="-18.67,18.12 -20.68,-6.17"/>
    </edge>

    <tlLogic id="Node2" type="static" programID="0" offset="0">
        <phase duration="42" state="GgrrGG"/>
        <phase duration="3"  state="yyrrGy"/>
        <phase duration="42" state="rrGGGr"/>
        <phase duration="3"  state="rryyGr"/>
    </tlLogic>
    <tlLogic id="Node5" type="static" programID="0" offset="0">
        <phase duration="42" state="rrGGGg"/>
        <phase duration="3"  state="rrGyyy"/>
        <phase duration="42" state="GGGrrr"/>
        <phase duration="3"  state="yyGrrr"/>
    </tlLogic>

    <junction id="Node1" type="priority" x="-66.08" y="25.44" incLanes="Node1-2-WB_0 E5_0" intLanes=":Node1_0_0 :Node1_1_0" shape="-62.84,28.64 -62.84,22.24 -69.24,22.15 -68.57,25.76 -67.68,27.02 -66.44,27.92 -64.82,28.46">
        <request index="0" response="00" foes="00" cont="0"/>
        <request index="1" response="00" foes="00" cont="0"/>
    </junction>
    <junction id="Node2" type="traffic_light" x="-16.46" y="25.44" incLanes="-E1_0 Node2-5-NB_0 Node1-2-EB_0" intLanes=":Node2_0_0 :Node2_6_0 :Node2_2_0 :Node2_3_0 :Node2_4_0 :Node2_5_0" shape="-9.50,28.62 -9.51,22.22 -11.78,21.72 -12.61,21.10 -13.23,20.23 -13.66,19.10 -13.89,17.72 -20.26,18.25 -20.53,20.46 -21.02,21.24 -21.75,21.79 -22.72,22.13 -23.93,22.24 -23.93,28.64">
        <request index="0" response="000000" foes="001000" cont="0"/>
        <request index="1" response="110000" foes="111000" cont="1"/>
        <request index="2" response="100000" foes="100000" cont="0"/>
        <request index="3" response="100011" foes="100011" cont="0"/>
        <request index="4" response="000000" foes="000010" cont="0"/>
        <request index="5" response="000000" foes="001110" cont="0"/>
    </junction>
    <junction id="Node3" type="priority" x="38.15" y="25.31" incLanes="-E2_0 E1_0" intLanes=":Node3_0_0 :Node3_1_0" shape="41.36,22.14 34.96,22.12 34.98,28.52 38.52,27.80 39.76,26.92 40.65,25.68 41.18,24.08">
        <request index="0" response="00" foes="00" cont="0"/>
        <request index="1" response="00" foes="00" cont="0"/>
    </junction>
    <junction id="Node4" type="priority" x="-65.59" y="-13.34" incLanes="E4_0 -E5_0" intLanes=":Node4_0_0 :Node4_1_0" shape="-62.43,-10.17 -62.48,-16.57 -65.97,-15.84 -67.20,-14.96 -68.08,-13.74 -68.63,-12.17 -68.83,-10.25">
        <request index="0" response="00" foes="00" cont="0"/>
        <request index="1" response="00" foes="00" cont="0"/>
    </junction>
    <junction id="Node5" type="traffic_light" x="-19.70" y="-13.72" incLanes="Node2-5-SB_0 E3_0 -E4_0" intLanes=":Node5_0_0 :Node5_1_0 :Node5_2_0 :Node5_3_0 :Node5_4_0 :Node5_6_0" shape="-22.28,-6.04 -15.90,-6.57 -15.64,-8.79 -15.15,-9.57 -14.41,-10.13 -13.44,-10.47 -12.23,-10.60 -12.30,-17.00 -26.70,-16.86 -26.64,-10.46 -24.38,-9.98 -23.55,-9.37 -22.93,-8.51 -22.50,-7.40">
        <request index="0" response="001000" foes="001000" cont="0"/>
        <request index="1" response="111000" foes="111000" cont="0"/>
        <request index="2" response="000000" foes="100000" cont="0"/>
        <request index="3" response="000000" foes="100011" cont="0"/>
        <request index="4" response="000000" foes="000010" cont="0"/>
        <request index="5" response="001100" foes="001110" cont="1"/>
    </junction>
    <junction id="Node6" type="priority" x="38.28" y="-14.34" incLanes="-E3_0 E2_0" intLanes=":Node6_0_0 :Node6_1_0" shape="35.00,-17.50 35.07,-11.10 41.47,-11.08 40.76,-14.68 39.86,-15.93 38.60,-16.82 36.98,-17.35">
        <request index="0" response="00" foes="00" cont="0"/>
        <request index="1" response="00" foes="00" cont="0"/>
    </junction>

    <junction id=":Node2_6_0" type="internal" x="-13.39" y="26.38" incLanes=":Node2_1_0 Node1-2-EB_0" intLanes=":Node2_3_0 :Node2_4_0 :Node2_5_0"/>
    <junction id=":Node5_6_0" type="internal" x="-22.80" y="-14.65" incLanes=":Node5_5_0 E3_0" intLanes=":Node5_1_0 :Node5_2_0 :Node5_3_0"/>

    <connection from="-E1" to="Node1-2-WB" fromLane="0" toLane="0" via=":Node2_0_0" tl="Node2" linkIndex="0" dir="s" state="O"/>
    <connection from="-E1" to="Node2-5-SB" fromLane="0" toLane="0" via=":Node2_1_0" tl="Node2" linkIndex="1" dir="l" state="o"/>
    <connection from="-E2" to="-E1" fromLane="0" toLane="0" via=":Node3_0_0" dir="l" state="M"/>
    <connection from="-E3" to="-E2" fromLane="0" toLane="0" via=":Node6_0_0" dir="l" state="M"/>
    <connection from="-E4" to="-E3" fromLane="0" toLane="0" via=":Node5_4_0" tl="Node5" linkIndex="4" dir="s" state="O"/>
    <connection from="-E4" to="Node2-5-NB" fromLane="0" toLane="0" via=":Node5_5_0" tl="Node5" linkIndex="5" dir="l" state="o"/>
    <connection from="-E5" to="-E4" fromLane="0" toLane="0" via=":Node4_1_0" dir="l" state="M"/>
    <connection from="E1" to="E2" fromLane="0" toLane="0" via=":Node3_1_0" dir="r" state="M"/>
    <connection from="E2" to="E3" fromLane="0" toLane="0" via=":Node6_1_0" dir="r" state="M"/>
    <connection from="E3" to="Node2-5-NB" fromLane="0" toLane="0" via=":Node5_2_0" tl="Node5" linkIndex="2" dir="r" state="O"/>
    <connection from="E3" to="E4" fromLane="0" toLane="0" via=":Node5_3_0" tl="Node5" linkIndex="3" dir="s" state="O"/>
    <connection from="E4" to="E5" fromLane="0" toLane="0" via=":Node4_0_0" dir="r" state="M"/>
    <connection from="E5" to="Node1-2-EB" fromLane="0" toLane="0" via=":Node1_1_0" dir="r" state="M"/>
    <connection from="Node1-2-EB" to="Node2-5-SB" fromLane="0" toLane="0" via=":Node2_4_0" tl="Node2" linkIndex="4" dir="r" state="O"/>
    <connection from="Node1-2-EB" to="E1" fromLane="0" toLane="0" via=":Node2_5_0" tl="Node2" linkIndex="5" dir="s" state="O"/>
    <connection from="Node1-2-WB" to="-E5" fromLane="0" toLane="0" via=":Node1_0_0" dir="l" state="M"/>
    <connection from="Node2-5-NB" to="E1" fromLane="0" toLane="0" via=":Node2_2_0" tl="Node2" linkIndex="2" dir="r" state="o"/>
    <connection from="Node2-5-NB" to="Node1-2-WB" fromLane="0" toLane="0" via=":Node2_3_0" tl="Node2" linkIndex="3" dir="l" state="o"/>
    <connection from="Node2-5-SB" to="E4" fromLane="0" toLane="0" via=":Node5_0_0" tl="Node5" linkIndex="0" dir="r" state="o"/>
    <connection from="Node2-5-SB" to="-E3" fromLane="0" toLane="0" via=":Node5_1_0" tl="Node5" linkIndex="1" dir="l" state="o"/>

    <connection from=":Node1_0" to="-E5" fromLane="0" toLane="0" dir="l" state="M"/>
    <connection from=":Node1_1" to="Node1-2-EB" fromLane="0" toLane="0" dir="r" state="M"/>
    <connection from=":Node2_0" to="Node1-2-WB" fromLane="0" toLane="0" dir="s" state="M"/>
    <connection from=":Node2_1" to="Node2-5-SB" fromLane="0" toLane="0" via=":Node2_6_0" dir="l" state="m"/>
    <connection from=":Node2_6" to="Node2-5-SB" fromLane="0" toLane="0" dir="l" state="M"/>
    <connection from=":Node2_2" to="E1" fromLane="0" toLane="0" dir="r" state="M"/>
    <connection from=":Node2_3" to="Node1-2-WB" fromLane="0" toLane="0" dir="l" state="M"/>
    <connection from=":Node2_4" to="Node2-5-SB" fromLane="0" toLane="0" dir="r" state="M"/>
    <connection from=":Node2_5" to="E1" fromLane="0" toLane="0" dir="s" state="M"/>
    <connection from=":Node3_0" to="-E1" fromLane="0" toLane="0" dir="l" state="M"/>
    <connection from=":Node3_1" to="E2" fromLane="0" toLane="0" dir="r" state="M"/>
    <connection from=":Node4_0" to="E5" fromLane="0" toLane="0" dir="r" state="M"/>
    <connection from=":Node4_1" to="-E4" fromLane="0" toLane="0" dir="l" state="M"/>
    <connection from=":Node5_0" to="E4" fromLane="0" toLane="0" dir="r" state="M"/>
    <connection from=":Node5_1" to="-E3" fromLane="0" toLane="0" dir="l" state="M"/>
    <connection from=":Node5_2" to="Node2-5-NB" fromLane="0" toLane="0" dir="r" state="M"/>
    <connection from=":Node5_3" to="E4" fromLane="0" toLane="0" dir="s" state="M"/>
    <connection from=":Node5_4" to="-E3" fromLane="0" toLane="0" dir="s" state="M"/>
    <connection from=":Node5_5" to="Node2-5-NB" fromLane="0" toLane="0" via=":Node5_6_0" dir="l" state="m"/>
    <connection from=":Node5_6" to="Node2-5-NB" fromLane="0" toLane="0" dir="l" state="M"/>
    <connection from=":Node6_0" to="-E2" fromLane="0" toLane="0" dir="l" state="M"/>
    <connection from=":Node6_1" to="E3" fromLane="0" toLane="0" dir="r" state="M"/>

</net>
