<additional>
    <inductionLoop id="det_-101001199_0" lane="-101001199_0" pos="71.56" freq="60" file="detector_output.xml"/>
    <inductionLoop id="det_-1194285985#1_0" lane="-1194285985#1_0" pos="12.64" freq="60" file="detector_output.xml"/>
    <inductionLoop id="det_-1194285985#1_1" lane="-1194285985#1_1" pos="12.64" freq="60" file="detector_output.xml"/>
    <inductionLoop id="det_-1257699423#2_0" lane="-1257699423#2_0" pos="28.55" freq="60" file="detector_output.xml"/>
    <inductionLoop id="det_-1257699423#2_1" lane="-1257699423#2_1" pos="28.55" freq="60" file="detector_output.xml"/>
    <inductionLoop id="det_-1257699423#2_2" lane="-1257699423#2_2" pos="28.55" freq="60" file="detector_output.xml"/>
    <inductionLoop id="det_-1257699424#2_0" lane="-1257699424#2_0" pos="28.17" freq="60" file="detector_output.xml"/>
    <inductionLoop id="det_-1257699424#2_1" lane="-1257699424#2_1" pos="28.17" freq="60" file="detector_output.xml"/>
    <inductionLoop id="det_-1257699424#2_2" lane="-1257699424#2_2" pos="28.17" freq="60" file="detector_output.xml"/>
    <inductionLoop id="det_-1257699425#2_0" lane="-1257699425#2_0" pos="13.68" freq="60" file="detector_output.xml"/>
    <inductionLoop id="det_-1257699425#2_1" lane="-1257699425#2_1" pos="13.68" freq="60" file="detector_output.xml"/>
    <inductionLoop id="det_-13254895#1_0" lane="-13254895#1_0" pos="93.04" freq="60" file="detector_output.xml"/>
    <inductionLoop id="det_-13345308#15_0" lane="-13345308#15_0" pos="43.04" freq="60" file="detector_output.xml"/>
    <inductionLoop id="det_-13346560#0_0" lane="-13346560#0_0" pos="31.67" freq="60" file="detector_output.xml"/>
    <inductionLoop id="det_-13382631#1_0" lane="-13382631#1_0" pos="20.45" freq="60" file="detector_output.xml"/>
    <inductionLoop id="det_-13399210#36_0" lane="-13399210#36_0" pos="21.52" freq="60" file="detector_output.xml"/>
    <inductionLoop id="det_-13435460#9_0" lane="-13435460#9_0" pos="211.57" freq="60" file="detector_output.xml"/>
    <inductionLoop id="det_-187986222#1_0" lane="-187986222#1_0" pos="124.79" freq="60" file="detector_output.xml"/>
    <inductionLoop id="det_-405327892_0" lane="-405327892_0" pos="2.38" freq="60" file="detector_output.xml"/>
    <inductionLoop id="det_-406209734#1_0" lane="-406209734#1_0" pos="108.87" freq="60" file="detector_output.xml"/>
    <inductionLoop id="det_-406209734#1_1" lane="-406209734#1_1" pos="108.87" freq="60" file="detector_output.xml"/>
    <inductionLoop id="det_-406258115#1_0" lane="-406258115#1_0" pos="33.7" freq="60" file="detector_output.xml"/>
    <inductionLoop id="det_-406258115#1_1" lane="-406258115#1_1" pos="33.7" freq="60" file="detector_output.xml"/>
    <inductionLoop id="det_-406258115#1_2" lane="-406258115#1_2" pos="33.7" freq="60" file="detector_output.xml"/>
    <inductionLoop id="det_-406259058#2_0" lane="-406259058#2_0" pos="2.41" freq="60" file="detector_output.xml"/>
    <inductionLoop id="det_-406259058#2_1" lane="-406259058#2_1" pos="2.41" freq="60" file="detector_output.xml"/>
    <inductionLoop id="det_-406259058#2_2" lane="-406259058#2_2" pos="2.41" freq="60" file="detector_output.xml"/>
    <inductionLoop id="det_-406259058#2_3" lane="-406259058#2_3" pos="2.41" freq="60" file="detector_output.xml"/>
    <inductionLoop id="det_-406259063#1_0" lane="-406259063#1_0" pos="1.27" freq="60" file="detector_output.xml"/>
    <inductionLoop id="det_-406259063#1_1" lane="-406259063#1_1" pos="1.27" freq="60" file="detector_output.xml"/>
    <inductionLoop id="det_-406259063#1_2" lane="-406259063#1_2" pos="1.27" freq="60" file="detector_output.xml"/>
    <inductionLoop id="det_-406259065#2_0" lane="-406259065#2_0" pos="23.94" freq="60" file="detector_output.xml"/>
    <inductionLoop id="det_-406259065#2_1" lane="-406259065#2_1" pos="23.94" freq="60" file="detector_output.xml"/>
    <inductionLoop id="det_-406259065#2_2" lane="-406259065#2_2" pos="23.94" freq="60" file="detector_output.xml"/>
    <inductionLoop id="det_-406259065#2_3" lane="-406259065#2_3" pos="23.94" freq="60" file="detector_output.xml"/>
    <inductionLoop id="det_-406259069_0" lane="-406259069_0" pos="15.420000000000002" freq="60" file="detector_output.xml"/>
    <inductionLoop id="det_-406264567#2_0" lane="-406264567#2_0" pos="26.98" freq="60" file="detector_output.xml"/>
    <inductionLoop id="det_-406264567#2_1" lane="-406264567#2_1" pos="26.98" freq="60" file="detector_output.xml"/>
    <inductionLoop id="det_-414764047_0" lane="-414764047_0" pos="12.57" freq="60" file="detector_output.xml"/>
    <inductionLoop id="det_-43542243#0_0" lane="-43542243#0_0" pos="35.61" freq="60" file="detector_output.xml"/>
    <inductionLoop id="det_-4480316#1_0" lane="-4480316#1_0" pos="44.03" freq="60" file="detector_output.xml"/>
    <inductionLoop id="det_-4480316#1_1" lane="-4480316#1_1" pos="44.03" freq="60" file="detector_output.xml"/>
    <inductionLoop id="det_-599510795#2_0" lane="-599510795#2_0" pos="41.39" freq="60" file="detector_output.xml"/>
    <inductionLoop id="det_-604060313_0" lane="-604060313_0" pos="100.68" freq="60" file="detector_output.xml"/>
    <inductionLoop id="det_-604060314#0_0" lane="-604060314#0_0" pos="81.25" freq="60" file="detector_output.xml"/>
    <inductionLoop id="det_-72011935#0_0" lane="-72011935#0_0" pos="44.04" freq="60" file="detector_output.xml"/>
    <inductionLoop id="det_-72011935#0_1" lane="-72011935#0_1" pos="44.04" freq="60" file="detector_output.xml"/>
    <inductionLoop id="det_-72011935#0_2" lane="-72011935#0_2" pos="44.04" freq="60" file="detector_output.xml"/>
    <inductionLoop id="det_-730187771_0" lane="-730187771_0" pos="94.38" freq="60" file="detector_output.xml"/>
    <inductionLoop id="det_-762263573#1_0" lane="-762263573#1_0" pos="3.46" freq="60" file="detector_output.xml"/>
    <inductionLoop id="det_-762263573#1_1" lane="-762263573#1_1" pos="3.46" freq="60" file="detector_output.xml"/>
    <inductionLoop id="det_101001204_0" lane="101001204_0" pos="137.66" freq="60" file="detector_output.xml"/>
    <inductionLoop id="det_101001204_1" lane="101001204_1" pos="137.66" freq="60" file="detector_output.xml"/>
    <inductionLoop id="det_101001215#1_0" lane="101001215#1_0" pos="82.26" freq="60" file="detector_output.xml"/>
    <inductionLoop id="det_1020225870#0_0" lane="1020225870#0_0" pos="16.48" freq="60" file="detector_output.xml"/>
    <inductionLoop id="det_1020225870#0_1" lane="1020225870#0_1" pos="16.48" freq="60" file="detector_output.xml"/>
    <inductionLoop id="det_1020225870#0_2" lane="1020225870#0_2" pos="16.48" freq="60" file="detector_output.xml"/>
    <inductionLoop id="det_1051736211#16_0" lane="1051736211#16_0" pos="23.32" freq="60" file="detector_output.xml"/>
    <inductionLoop id="det_1065518636#0_0" lane="1065518636#0_0" pos="30.13" freq="60" file="detector_output.xml"/>
    <inductionLoop id="det_1065518636#0_1" lane="1065518636#0_1" pos="30.13" freq="60" file="detector_output.xml"/>
    <inductionLoop id="det_1065518636#0_2" lane="1065518636#0_2" pos="30.13" freq="60" file="detector_output.xml"/>
    <inductionLoop id="det_1194285983#0_0" lane="1194285983#0_0" pos="6.57" freq="60" file="detector_output.xml"/>
    <inductionLoop id="det_1194285983#0_1" lane="1194285983#0_1" pos="6.57" freq="60" file="detector_output.xml"/>
    <inductionLoop id="det_1194285986_0" lane="1194285986_0" pos="44.88" freq="60" file="detector_output.xml"/>
    <inductionLoop id="det_1194285986_1" lane="1194285986_1" pos="44.88" freq="60" file="detector_output.xml"/>
    <inductionLoop id="det_1257699420#0_0" lane="1257699420#0_0" pos="29.79" freq="60" file="detector_output.xml"/>
    <inductionLoop id="det_1257699420#0_1" lane="1257699420#0_1" pos="29.79" freq="60" file="detector_output.xml"/>
    <inductionLoop id="det_1257699420#0_2" lane="1257699420#0_2" pos="29.79" freq="60" file="detector_output.xml"/>
    <inductionLoop id="det_13345308#14_0" lane="13345308#14_0" pos="11.72" freq="60" file="detector_output.xml"/>
    <inductionLoop id="det_13399210#35_0" lane="13399210#35_0" pos="23.22" freq="60" file="detector_output.xml"/>
    <inductionLoop id="det_13435460#4_0" lane="13435460#4_0" pos="32.32" freq="60" file="detector_output.xml"/>
    <inductionLoop id="det_13448799#8_0" lane="13448799#8_0" pos="43.26" freq="60" file="detector_output.xml"/>
    <inductionLoop id="det_187986225#1_0" lane="187986225#1_0" pos="78.21" freq="60" file="detector_output.xml"/>
    <inductionLoop id="det_187986226#1_0" lane="187986226#1_0" pos="7.890000000000001" freq="60" file="detector_output.xml"/>
    <inductionLoop id="det_192503236#0_0" lane="192503236#0_0" pos="32.06" freq="60" file="detector_output.xml"/>
    <inductionLoop id="det_192503236#0_1" lane="192503236#0_1" pos="32.06" freq="60" file="detector_output.xml"/>
    <inductionLoop id="det_192503236#0_2" lane="192503236#0_2" pos="32.06" freq="60" file="detector_output.xml"/>
    <inductionLoop id="det_334631554#0_0" lane="334631554#0_0" pos="282.72" freq="60" file="detector_output.xml"/>
    <inductionLoop id="det_334631554#0_1" lane="334631554#0_1" pos="282.72" freq="60" file="detector_output.xml"/>
    <inductionLoop id="det_334631554#0_2" lane="334631554#0_2" pos="282.72" freq="60" file="detector_output.xml"/>
    <inductionLoop id="det_334631554#0_3" lane="334631554#0_3" pos="282.72" freq="60" file="detector_output.xml"/>
    <inductionLoop id="det_405546347#0_0" lane="405546347#0_0" pos="5.47" freq="60" file="detector_output.xml"/>
    <inductionLoop id="det_405546347#0_1" lane="405546347#0_1" pos="5.47" freq="60" file="detector_output.xml"/>
    <inductionLoop id="det_405546347#0_2" lane="405546347#0_2" pos="5.47" freq="60" file="detector_output.xml"/>
    <inductionLoop id="det_405546347#0_3" lane="405546347#0_3" pos="5.47" freq="60" file="detector_output.xml"/>
    <inductionLoop id="det_406215613#0_0" lane="406215613#0_0" pos="51.1" freq="60" file="detector_output.xml"/>
    <inductionLoop id="det_406215613#0_1" lane="406215613#0_1" pos="51.1" freq="60" file="detector_output.xml"/>
    <inductionLoop id="det_406215613#0_2" lane="406215613#0_2" pos="51.1" freq="60" file="detector_output.xml"/>
    <inductionLoop id="det_406215655#1_0" lane="406215655#1_0" pos="7.4" freq="60" file="detector_output.xml"/>
    <inductionLoop id="det_406215655#1_1" lane="406215655#1_1" pos="7.4" freq="60" file="detector_output.xml"/>
    <inductionLoop id="det_406215655#1_2" lane="406215655#1_2" pos="7.4" freq="60" file="detector_output.xml"/>
    <inductionLoop id="det_406215688_0" lane="406215688_0" pos="63.69" freq="60" file="detector_output.xml"/>
    <inductionLoop id="det_406215688_1" lane="406215688_1" pos="63.69" freq="60" file="detector_output.xml"/>
    <inductionLoop id="det_406215688_2" lane="406215688_2" pos="63.69" freq="60" file="detector_output.xml"/>
    <inductionLoop id="det_406215688_3" lane="406215688_3" pos="63.69" freq="60" file="detector_output.xml"/>
    <inductionLoop id="det_406215694_0" lane="406215694_0" pos="253.65" freq="60" file="detector_output.xml"/>
    <inductionLoop id="det_406215694_1" lane="406215694_1" pos="253.65" freq="60" file="detector_output.xml"/>
    <inductionLoop id="det_406215694_2" lane="406215694_2" pos="253.65" freq="60" file="detector_output.xml"/>
    <inductionLoop id="det_406216725#0_0" lane="406216725#0_0" pos="50.03" freq="60" file="detector_output.xml"/>
    <inductionLoop id="det_406216725#0_1" lane="406216725#0_1" pos="50.03" freq="60" file="detector_output.xml"/>
    <inductionLoop id="det_406216725#0_2" lane="406216725#0_2" pos="50.03" freq="60" file="detector_output.xml"/>
    <inductionLoop id="det_406216725#0_3" lane="406216725#0_3" pos="50.03" freq="60" file="detector_output.xml"/>
    <inductionLoop id="det_406232641#0_0" lane="406232641#0_0" pos="35.96" freq="60" file="detector_output.xml"/>
    <inductionLoop id="det_406232641#0_1" lane="406232641#0_1" pos="35.96" freq="60" file="detector_output.xml"/>
    <inductionLoop id="det_406232641#0_2" lane="406232641#0_2" pos="35.96" freq="60" file="detector_output.xml"/>
    <inductionLoop id="det_406232643#0_0" lane="406232643#0_0" pos="20.25" freq="60" file="detector_output.xml"/>
    <inductionLoop id="det_406232643#0_1" lane="406232643#0_1" pos="20.25" freq="60" file="detector_output.xml"/>
    <inductionLoop id="det_406232643#0_2" lane="406232643#0_2" pos="20.25" freq="60" file="detector_output.xml"/>
    <inductionLoop id="det_406232643#0_3" lane="406232643#0_3" pos="20.25" freq="60" file="detector_output.xml"/>
    <inductionLoop id="det_406232658#0_0" lane="406232658#0_0" pos="17.88" freq="60" file="detector_output.xml"/>
    <inductionLoop id="det_406232658#0_1" lane="406232658#0_1" pos="17.88" freq="60" file="detector_output.xml"/>
    <inductionLoop id="det_406232658#0_2" lane="406232658#0_2" pos="17.88" freq="60" file="detector_output.xml"/>
    <inductionLoop id="det_406232660_0" lane="406232660_0" pos="12.93" freq="60" file="detector_output.xml"/>
    <inductionLoop id="det_406232660_1" lane="406232660_1" pos="12.93" freq="60" file="detector_output.xml"/>
    <inductionLoop id="det_406232660_2" lane="406232660_2" pos="12.93" freq="60" file="detector_output.xml"/>
    <inductionLoop id="det_406233349#0_0" lane="406233349#0_0" pos="41.63" freq="60" file="detector_output.xml"/>
    <inductionLoop id="det_406233349#0_1" lane="406233349#0_1" pos="41.63" freq="60" file="detector_output.xml"/>
    <inductionLoop id="det_406233349#0_2" lane="406233349#0_2" pos="41.63" freq="60" file="detector_output.xml"/>
    <inductionLoop id="det_406233349#0_3" lane="406233349#0_3" pos="41.63" freq="60" file="detector_output.xml"/>
    <inductionLoop id="det_406234624#0_0" lane="406234624#0_0" pos="57.27" freq="60" file="detector_output.xml"/>
    <inductionLoop id="det_406234624#0_1" lane="406234624#0_1" pos="57.27" freq="60" file="detector_output.xml"/>
    <inductionLoop id="det_406234624#0_2" lane="406234624#0_2" pos="57.27" freq="60" file="detector_output.xml"/>
    <inductionLoop id="det_406234624#0_3" lane="406234624#0_3" pos="57.27" freq="60" file="detector_output.xml"/>
    <inductionLoop id="det_406234624#0_4" lane="406234624#0_4" pos="57.27" freq="60" file="detector_output.xml"/>
    <inductionLoop id="det_406234630#0_0" lane="406234630#0_0" pos="18.23" freq="60" file="detector_output.xml"/>
    <inductionLoop id="det_406234630#0_1" lane="406234630#0_1" pos="18.23" freq="60" file="detector_output.xml"/>
    <inductionLoop id="det_406241587#7_0" lane="406241587#7_0" pos="47.98" freq="60" file="detector_output.xml"/>
    <inductionLoop id="det_406241587#7_1" lane="406241587#7_1" pos="47.98" freq="60" file="detector_output.xml"/>
    <inductionLoop id="det_406241596#0_0" lane="406241596#0_0" pos="31.340000000000003" freq="60" file="detector_output.xml"/>
    <inductionLoop id="det_406241596#0_1" lane="406241596#0_1" pos="31.340000000000003" freq="60" file="detector_output.xml"/>
    <inductionLoop id="det_406241596#0_2" lane="406241596#0_2" pos="31.340000000000003" freq="60" file="detector_output.xml"/>
    <inductionLoop id="det_406241596#0_3" lane="406241596#0_3" pos="31.340000000000003" freq="60" file="detector_output.xml"/>
    <inductionLoop id="det_406241596#0_4" lane="406241596#0_4" pos="31.340000000000003" freq="60" file="detector_output.xml"/>
    <inductionLoop id="det_406241603#0_0" lane="406241603#0_0" pos="18.91" freq="60" file="detector_output.xml"/>
    <inductionLoop id="det_406241603#0_1" lane="406241603#0_1" pos="18.91" freq="60" file="detector_output.xml"/>
    <inductionLoop id="det_406241603#0_2" lane="406241603#0_2" pos="18.91" freq="60" file="detector_output.xml"/>
    <inductionLoop id="det_406241603#0_3" lane="406241603#0_3" pos="18.91" freq="60" file="detector_output.xml"/>
    <inductionLoop id="det_406241603#0_4" lane="406241603#0_4" pos="18.91" freq="60" file="detector_output.xml"/>
    <inductionLoop id="det_406242635#2_0" lane="406242635#2_0" pos="105.69" freq="60" file="detector_output.xml"/>
    <inductionLoop id="det_406242635#2_1" lane="406242635#2_1" pos="105.69" freq="60" file="detector_output.xml"/>
    <inductionLoop id="det_406242644#0_0" lane="406242644#0_0" pos="41.09" freq="60" file="detector_output.xml"/>
    <inductionLoop id="det_406242644#0_1" lane="406242644#0_1" pos="41.09" freq="60" file="detector_output.xml"/>
    <inductionLoop id="det_406242644#0_2" lane="406242644#0_2" pos="41.09" freq="60" file="detector_output.xml"/>
    <inductionLoop id="det_406242644#0_3" lane="406242644#0_3" pos="41.09" freq="60" file="detector_output.xml"/>
    <inductionLoop id="det_406242644#0_4" lane="406242644#0_4" pos="41.09" freq="60" file="detector_output.xml"/>
    <inductionLoop id="det_406242646#0_0" lane="406242646#0_0" pos="23.39" freq="60" file="detector_output.xml"/>
    <inductionLoop id="det_406242646#0_1" lane="406242646#0_1" pos="23.39" freq="60" file="detector_output.xml"/>
    <inductionLoop id="det_406242646#0_2" lane="406242646#0_2" pos="23.39" freq="60" file="detector_output.xml"/>
    <inductionLoop id="det_406242646#0_3" lane="406242646#0_3" pos="23.39" freq="60" file="detector_output.xml"/>
    <inductionLoop id="det_406242646#0_4" lane="406242646#0_4" pos="23.39" freq="60" file="detector_output.xml"/>
    <inductionLoop id="det_406242924#0_0" lane="406242924#0_0" pos="26.64" freq="60" file="detector_output.xml"/>
    <inductionLoop id="det_406242924#0_1" lane="406242924#0_1" pos="26.64" freq="60" file="detector_output.xml"/>
    <inductionLoop id="det_406242924#0_2" lane="406242924#0_2" pos="26.64" freq="60" file="detector_output.xml"/>
    <inductionLoop id="det_406242924#0_3" lane="406242924#0_3" pos="26.64" freq="60" file="detector_output.xml"/>
    <inductionLoop id="det_406242930#0_0" lane="406242930#0_0" pos="29.42" freq="60" file="detector_output.xml"/>
    <inductionLoop id="det_406242930#0_1" lane="406242930#0_1" pos="29.42" freq="60" file="detector_output.xml"/>
    <inductionLoop id="det_406242930#0_2" lane="406242930#0_2" pos="29.42" freq="60" file="detector_output.xml"/>
    <inductionLoop id="det_406242930#0_3" lane="406242930#0_3" pos="29.42" freq="60" file="detector_output.xml"/>
    <inductionLoop id="det_406258116#0_0" lane="406258116#0_0" pos="15.350000000000001" freq="60" file="detector_output.xml"/>
    <inductionLoop id="det_406258116#0_1" lane="406258116#0_1" pos="15.350000000000001" freq="60" file="detector_output.xml"/>
    <inductionLoop id="det_406258116#0_2" lane="406258116#0_2" pos="15.350000000000001" freq="60" file="detector_output.xml"/>
    <inductionLoop id="det_406259057#8_0" lane="406259057#8_0" pos="107.03" freq="60" file="detector_output.xml"/>
    <inductionLoop id="det_406259061#6_0" lane="406259061#6_0" pos="29.51" freq="60" file="detector_output.xml"/>
    <inductionLoop id="det_406259061#6_1" lane="406259061#6_1" pos="29.51" freq="60" file="detector_output.xml"/>
    <inductionLoop id="det_406259066_0" lane="406259066_0" pos="16.07" freq="60" file="detector_output.xml"/>
    <inductionLoop id="det_406264569#0_0" lane="406264569#0_0" pos="12.59" freq="60" file="detector_output.xml"/>
    <inductionLoop id="det_406264569#0_1" lane="406264569#0_1" pos="12.59" freq="60" file="detector_output.xml"/>
    <inductionLoop id="det_406264569#0_2" lane="406264569#0_2" pos="12.59" freq="60" file="detector_output.xml"/>
    <inductionLoop id="det_598628202#18_0" lane="598628202#18_0" pos="137.16" freq="60" file="detector_output.xml"/>
    <inductionLoop id="det_599510795#3_0" lane="599510795#3_0" pos="49.62" freq="60" file="detector_output.xml"/>
    <inductionLoop id="det_604060294_0" lane="604060294_0" pos="175.07" freq="60" file="detector_output.xml"/>
    <inductionLoop id="det_604060294_1" lane="604060294_1" pos="175.07" freq="60" file="detector_output.xml"/>
    <inductionLoop id="det_604060294_2" lane="604060294_2" pos="175.07" freq="60" file="detector_output.xml"/>
    <inductionLoop id="det_604060294_3" lane="604060294_3" pos="175.07" freq="60" file="detector_output.xml"/>
    <inductionLoop id="det_604060296#1_0" lane="604060296#1_0" pos="46.07" freq="60" file="detector_output.xml"/>
    <inductionLoop id="det_604060296#1_1" lane="604060296#1_1" pos="46.07" freq="60" file="detector_output.xml"/>
    <inductionLoop id="det_604060296#1_2" lane="604060296#1_2" pos="46.07" freq="60" file="detector_output.xml"/>
    <inductionLoop id="det_604060297_0" lane="604060297_0" pos="67.77" freq="60" file="detector_output.xml"/>
    <inductionLoop id="det_604060313_0" lane="604060313_0" pos="100.74" freq="60" file="detector_output.xml"/>
    <inductionLoop id="det_604060314#5_0" lane="604060314#5_0" pos="70.86" freq="60" file="detector_output.xml"/>
    <inductionLoop id="det_630143603_0" lane="630143603_0" pos="52.42" freq="60" file="detector_output.xml"/>
    <inductionLoop id="det_630143603_1" lane="630143603_1" pos="52.42" freq="60" file="detector_output.xml"/>
    <inductionLoop id="det_630143603_2" lane="630143603_2" pos="52.42" freq="60" file="detector_output.xml"/>
    <inductionLoop id="det_630143603_3" lane="630143603_3" pos="52.42" freq="60" file="detector_output.xml"/>
    <inductionLoop id="det_724247520#4_0" lane="724247520#4_0" pos="66.85" freq="60" file="detector_output.xml"/>
    <inductionLoop id="det_755844256_0" lane="755844256_0" pos="20.75" freq="60" file="detector_output.xml"/>
    <inductionLoop id="det_755844258#2_0" lane="755844258#2_0" pos="51.05" freq="60" file="detector_output.xml"/>
    <inductionLoop id="det_755844260#0_0" lane="755844260#0_0" pos="24.97" freq="60" file="detector_output.xml"/>
    <inductionLoop id="det_755844260#0_1" lane="755844260#0_1" pos="24.97" freq="60" file="detector_output.xml"/>
    <inductionLoop id="det_755844260#0_2" lane="755844260#0_2" pos="24.97" freq="60" file="detector_output.xml"/>
    <inductionLoop id="det_755844261#0_0" lane="755844261#0_0" pos="30.86" freq="60" file="detector_output.xml"/>
    <inductionLoop id="det_755844261#0_1" lane="755844261#0_1" pos="30.86" freq="60" file="detector_output.xml"/>
    <inductionLoop id="det_755844261#0_2" lane="755844261#0_2" pos="30.86" freq="60" file="detector_output.xml"/>
    <inductionLoop id="det_755844262#0_0" lane="755844262#0_0" pos="20.47" freq="60" file="detector_output.xml"/>
    <inductionLoop id="det_755844262#0_1" lane="755844262#0_1" pos="20.47" freq="60" file="detector_output.xml"/>
    <inductionLoop id="det_755844262#0_2" lane="755844262#0_2" pos="20.47" freq="60" file="detector_output.xml"/>
    <inductionLoop id="det_755844263_0" lane="755844263_0" pos="16.34" freq="60" file="detector_output.xml"/>
    <inductionLoop id="det_755844263_1" lane="755844263_1" pos="16.34" freq="60" file="detector_output.xml"/>
    <inductionLoop id="det_755844263_2" lane="755844263_2" pos="16.34" freq="60" file="detector_output.xml"/>
    <inductionLoop id="det_755844281#0_0" lane="755844281#0_0" pos="50.26" freq="60" file="detector_output.xml"/>
    <inductionLoop id="det_755844281#0_1" lane="755844281#0_1" pos="50.26" freq="60" file="detector_output.xml"/>
    <inductionLoop id="det_755844281#0_2" lane="755844281#0_2" pos="50.26" freq="60" file="detector_output.xml"/>
    <inductionLoop id="det_755844281#0_3" lane="755844281#0_3" pos="50.26" freq="60" file="detector_output.xml"/>
</additional>
