<?xml version="1.0" encoding="UTF-8"?>

<!-- generated on 2025-04-16 00:46:59 by Eclipse SUMO netedit Version 1.22.0
-->

<routes xmlns:xsi="http://www.w3.org/2001/XMLSchema-instance" xsi:noNamespaceSchemaLocation="http://sumo.dlr.de/xsd/routes_file.xsd">
    <!-- VTypes -->
    <vType id="bus" vClass="bus"/>
    <!-- Vehicles, persons and containers (sorted by depart) -->
    <trip id="bus1" type="bus" depart="0.00" from="-604060314#7" to="406242924#0" via="-604060314#4 -604060314#2 -604060314#1 -604060314#0 -1194285986 -1194285987#1 -1194285987#0 -13317660#5 -13317660#4 -13317660#3 -13317660#2 -13317660#1 -13317660#0 -1194285985#1 -1194285983#1 -1194285982#1 -1194285982#0 -1194285981#1 -1194285981#0 586356925#1 586356925#2 586356925#3 586356925#5 13448799#4 13448799#5 13448799#6 13448799#7 13448799#8 755844267 755844268#0 755844268#1 755844268#2 755844268#3 755844263 1018517761 755844278#0 755844278#1 755844278#2 755844262#0 755844277#0 755844275#0 755844275#1 755844275#2 755844261#0 755844274 755844260#0 406242645#0 406242645#2 406242639 406242917#0 406242917#1"/>
    <trip id="bus2" type="bus" depart="0.00" from="13448799#0" to="1324864130#0" via="13448799#1 13448799#2 13448799#3 13448799#4 13448799#5 13448799#6 13448799#7 13448799#8 1257699425#2 13315631#0 13315631#1 13315631#2"/>
    <flow id="f_0" begin="0.00" color="cyan" from="-13346560#0" to="-13372147" via="604060314#0 604060314#1 604060314#2 604060314#4 604060314#5 406242911#0 406242638 13345308#1 13345308#2 13345308#3 13345308#4 13345308#5 13345308#7 13345308#8 13345308#9 13345308#10 13345308#11 13345308#12 13345308#13 13345308#14 -604060313 -1194285986 -1194285987#1 -1194285987#0 -13317660#5 -13317660#4 -13317660#3 -13317660#2 -13317660#1 -13317660#0 -1194285985#1 -1194285983#1 -1194285982#1 -1194285982#0 -1194285981#1 -1194285981#0 586356925#1 586356925#2 586356925#3 586356925#5" end="3600.00" vehsPerHour="1800"/>
</routes>
