<?xml version="1.0" encoding="UTF-8"?>

<!-- generated on 2025-03-07 22:11:12.416274 by osmWebWizard.py UNKNOWN
<configuration>
    <net-file value="/Users/nedasarbalavandeymir/Sumo/2025-03-07-22-10-26/osm.net.xml.gz"/>
    <output-trip-file value="/Users/nedasarbalavandeymir/Sumo/2025-03-07-22-10-26/osm.passenger.trips.xml"/>
    <route-file value="/Users/nedasarbalavandeymir/Sumo/2025-03-07-22-10-26/osm.passenger.rou.xml"/>
    <prefix value="veh"/>
    <trip-attributes value="departLane=&quot;best&quot;"/>
    <fringe-start-attributes value="departSpeed=&quot;max&quot;"/>
    <vehicle-class value="passenger"/>
    <lanes value="True"/>
    <fringe-factor value="5"/>
    <allow-fringe.min-length value="1000.0"/>
    <via-edge-types value="highway.motorway,highway.motorway_link,highway.trunk_link,highway.primary_link,highway.secondary_link,highway.tertiary_link"/>
    <min-distance value="300.0"/>
    <min-distance.fringe value="10.0"/>
    <remove-loops value="True"/>
    <validate value="True"/>
    <insertion-density value="12.0"/>
</configuration>
-->

<!-- generated on 2025-03-07 22:11:12 by Eclipse SUMO duarouter Version 1.22.0
<duarouterConfiguration xmlns:xsi="http://www.w3.org/2001/XMLSchema-instance" xsi:noNamespaceSchemaLocation="http://sumo.dlr.de/xsd/duarouterConfiguration.xsd">

    <input>
        <net-file value="/Users/nedasarbalavandeymir/Sumo/2025-03-07-22-10-26/osm.net.xml.gz"/>
        <route-files value="/Users/nedasarbalavandeymir/Sumo/2025-03-07-22-10-26/osm.passenger.trips.xml"/>
    </input>

    <output>
        <output-file value="/Users/nedasarbalavandeymir/Sumo/2025-03-07-22-10-26/osm.passenger.trips.xml.tmp"/>
        <alternatives-output value="NUL"/>
        <write-trips value="true"/>
    </output>

    <processing>
        <remove-loops value="true"/>
    </processing>

    <time>
        <begin value="0.0"/>
        <end value="3600.0"/>
    </time>

    <report>
        <no-warnings value="true"/>
        <ignore-errors value="true"/>
        <no-step-log value="true"/>
    </report>

</duarouterConfiguration>
-->

<routes xmlns:xsi="http://www.w3.org/2001/XMLSchema-instance" xsi:noNamespaceSchemaLocation="http://sumo.dlr.de/xsd/routes_file.xsd">
    <vType id="veh_passenger" vClass="passenger"/>
    <trip id="veh1" type="veh_passenger" depart="2.86" departLane="best" from="-406215610#0" to="-202756206#3"/>
    <trip id="veh2" type="veh_passenger" depart="5.72" departLane="best" from="406215610#1" to="405545581#3"/>
    <trip id="veh3" type="veh_passenger" depart="8.59" departLane="best" from="406259064#6" to="-13344102#0"/>
    <trip id="veh4" type="veh_passenger" depart="11.45" departLane="best" from="-1264201018#0" to="-1194285985#1"/>
    <trip id="veh5" type="veh_passenger" depart="14.31" departLane="best" departSpeed="max" from="-13447863" to="13392839#1"/>
    <trip id="veh6" type="veh_passenger" depart="17.17" departLane="best" from="-1194285984#2" to="-13448910#0"/>
    <trip id="veh7" type="veh_passenger" depart="20.03" departLane="best" from="405544792#0" to="13434105#1"/>
    <trip id="veh8" type="veh_passenger" depart="22.90" departLane="best" from="13448799#1" to="192503240"/>
    <trip id="veh9" type="veh_passenger" depart="25.76" departLane="best" from="630143603" to="-1051736211#5"/>
    <trip id="veh10" type="veh_passenger" depart="28.62" departLane="best" from="406233344" to="405546356#1"/>
    <trip id="veh11" type="veh_passenger" depart="31.48" departLane="best" from="690987761" to="1029507042"/>
    <trip id="veh12" type="veh_passenger" depart="34.34" departLane="best" departSpeed="max" from="-13344110" to="-13360316#10"/>
    <trip id="veh13" type="veh_passenger" depart="37.21" departLane="best" from="406242637#1" to="-24672357#1"/>
    <trip id="veh14" type="veh_passenger" depart="40.07" departLane="best" from="406233345#0" to="406215610#3"/>
    <trip id="veh15" type="veh_passenger" depart="42.93" departLane="best" from="13399210#11" to="755844267"/>
    <trip id="veh16" type="veh_passenger" depart="45.79" departLane="best" from="406241601#2" to="334267468#12"/>
    <trip id="veh17" type="veh_passenger" depart="48.65" departLane="best" from="406242906" to="13471148#2"/>
    <trip id="veh18" type="veh_passenger" depart="51.52" departLane="best" from="405546356#0" to="13287422#19"/>
    <trip id="veh19" type="veh_passenger" depart="54.38" departLane="best" from="-13460918#1" to="569214584#0"/>
    <trip id="veh20" type="veh_passenger" depart="57.24" departLane="best" from="-13323113#0" to="-405547258#0"/>
    <trip id="veh21" type="veh_passenger" depart="60.10" departLane="best" departSpeed="max" from="-13347542" to="-406259064#7"/>
    <trip id="veh22" type="veh_passenger" depart="62.96" departLane="best" from="334267468#3" to="1194285984#2"/>
    <trip id="veh23" type="veh_passenger" depart="65.83" departLane="best" from="1020225871" to="13467852#1"/>
    <trip id="veh24" type="veh_passenger" depart="68.69" departLane="best" from="406209734#0" to="604060296#7"/>
    <trip id="veh26" type="veh_passenger" depart="74.41" departLane="best" from="13399210#16" to="406215610#2"/>
    <trip id="veh27" type="veh_passenger" depart="77.27" departLane="best" departSpeed="max" from="-13389561#1" to="1324864130#0"/>
    <trip id="veh28" type="veh_passenger" depart="80.14" departLane="best" departSpeed="max" from="755844281#0" to="405544792#0"/>
    <trip id="veh29" type="veh_passenger" depart="83.00" departLane="best" departSpeed="max" from="13404578#0" to="405546348"/>
    <trip id="veh30" type="veh_passenger" depart="85.86" departLane="best" from="406242635#9" to="406216740#2"/>
    <trip id="veh31" type="veh_passenger" depart="88.72" departLane="best" from="-13460918#3" to="-1194285987#1"/>
    <trip id="veh32" type="veh_passenger" depart="91.58" departLane="best" from="412227861" to="-406259063#1"/>
    <trip id="veh33" type="veh_passenger" depart="94.45" departLane="best" from="13435460#2" to="630143602"/>
    <trip id="veh34" type="veh_passenger" depart="97.31" departLane="best" from="406259057#7" to="-72011935#7"/>
    <trip id="veh35" type="veh_passenger" depart="100.17" departLane="best" from="405544796#1" to="-13304517#2"/>
    <trip id="veh36" type="veh_passenger" depart="103.03" departLane="best" from="524206684#2" to="13364068#0"/>
    <trip id="veh37" type="veh_passenger" depart="105.89" departLane="best" from="405547258#4" to="-406215610#0"/>
    <trip id="veh38" type="veh_passenger" depart="108.76" departLane="best" from="-13404578#9" to="-406259061#0"/>
    <trip id="veh39" type="veh_passenger" depart="111.62" departLane="best" from="13448799#7" to="415101865#2"/>
    <trip id="veh40" type="veh_passenger" depart="114.48" departLane="best" from="1194285984#3" to="-182072578#8"/>
    <trip id="veh41" type="veh_passenger" depart="117.34" departLane="best" from="770571740" to="13399210#14"/>
    <trip id="veh42" type="veh_passenger" depart="120.20" departLane="best" departSpeed="max" from="-13344102#1" to="13287422#21"/>
    <trip id="veh43" type="veh_passenger" depart="123.07" departLane="best" departSpeed="max" from="-13355868" to="334267468#5"/>
    <trip id="veh44" type="veh_passenger" depart="125.93" departLane="best" from="755844262#0" to="-13323117#0"/>
    <trip id="veh45" type="veh_passenger" depart="128.79" departLane="best" from="-13307004#2" to="-13254895#3"/>
    <trip id="veh46" type="veh_passenger" depart="131.65" departLane="best" from="762263572#2" to="-13404578#2"/>
    <trip id="veh47" type="veh_passenger" depart="134.51" departLane="best" from="755844261#0" to="406242933#0"/>
    <trip id="veh48" type="veh_passenger" depart="137.38" departLane="best" from="1090736692#3" to="406210052#4"/>
    <trip id="veh49" type="veh_passenger" depart="140.24" departLane="best" from="405545581#0" to="13421073"/>
    <trip id="veh50" type="veh_passenger" depart="143.10" departLane="best" from="406209734#0" to="405544792#0"/>
    <trip id="veh51" type="veh_passenger" depart="145.96" departLane="best" from="-13360316#1" to="13345308#15"/>
    <trip id="veh52" type="veh_passenger" depart="148.82" departLane="best" from="-13315528#12" to="715773496"/>
    <trip id="veh53" type="veh_passenger" depart="151.69" departLane="best" from="-406259057#5" to="406259061#1"/>
    <trip id="veh54" type="veh_passenger" depart="154.55" departLane="best" from="-13372985#12" to="13426333#1"/>
    <trip id="veh55" type="veh_passenger" depart="157.41" departLane="best" from="4619023#2" to="-406259061#1"/>
    <trip id="veh56" type="veh_passenger" depart="160.27" departLane="best" from="-406259064#1" to="405327892"/>
    <trip id="veh57" type="veh_passenger" depart="163.13" departLane="best" from="192503240" to="13399210#18"/>
    <trip id="veh58" type="veh_passenger" depart="166.00" departLane="best" from="406216724#2" to="13471953#0"/>
    <trip id="veh59" type="veh_passenger" depart="168.86" departLane="best" from="-1008405678#1" to="85355565#0"/>
    <trip id="veh60" type="veh_passenger" depart="171.72" departLane="best" from="-1166308294#4" to="604060295#1"/>
    <trip id="veh61" type="veh_passenger" depart="174.58" departLane="best" from="-406259060" to="406242635#7"/>
    <trip id="veh62" type="veh_passenger" depart="177.44" departLane="best" from="406259058#3" to="640278675"/>
    <trip id="veh63" type="veh_passenger" depart="180.30" departLane="best" from="-13329510#1" to="13382631#5"/>
    <trip id="veh64" type="veh_passenger" depart="183.17" departLane="best" from="-13315528#12" to="406215685#0"/>
    <trip id="veh66" type="veh_passenger" depart="188.89" departLane="best" from="13345308#12" to="13435460#13"/>
    <trip id="veh67" type="veh_passenger" depart="191.75" departLane="best" from="405547258#4" to="406259061#4"/>
    <trip id="veh68" type="veh_passenger" depart="194.61" departLane="best" from="1324864130#1" to="-13468046#3"/>
    <trip id="veh69" type="veh_passenger" depart="197.48" departLane="best" from="-13399210#19" to="406215610#3"/>
    <trip id="veh70" type="veh_passenger" depart="200.34" departLane="best" departSpeed="max" from="-13426333#4" to="-72011935#4"/>
    <trip id="veh72" type="veh_passenger" depart="206.06" departLane="best" from="-13293747#2" to="13399210#36"/>
    <trip id="veh73" type="veh_passenger" depart="208.92" departLane="best" from="-13364068#13" to="-206911853#2"/>
    <trip id="veh74" type="veh_passenger" depart="211.79" departLane="best" from="-72011935#10" to="192503236#0"/>
    <trip id="veh75" type="veh_passenger" depart="214.65" departLane="best" from="-13460918#7" to="-202756206#0"/>
    <trip id="veh76" type="veh_passenger" depart="217.51" departLane="best" from="-13315528#3" to="334267468#7"/>
    <trip id="veh78" type="veh_passenger" depart="223.23" departLane="best" from="406242649#3" to="13315528#5"/>
    <trip id="veh79" type="veh_passenger" depart="226.10" departLane="best" from="-13471953#0" to="405545577#4"/>
    <trip id="veh80" type="veh_passenger" depart="228.96" departLane="best" from="-13435466#5" to="-13386815#1"/>
    <trip id="veh81" type="veh_passenger" depart="231.82" departLane="best" from="604060295#0" to="13466542#0"/>
    <trip id="veh82" type="veh_passenger" depart="234.68" departLane="best" departSpeed="max" from="13344102#0" to="406232649#0"/>
    <trip id="veh83" type="veh_passenger" depart="237.54" departLane="best" from="406233345#0" to="13436030#1"/>
    <trip id="veh84" type="veh_passenger" depart="240.41" departLane="best" from="-13345308#18" to="13344102#1"/>
    <trip id="veh85" type="veh_passenger" depart="243.27" departLane="best" from="1324864130#1" to="-13372142#0"/>
    <trip id="veh86" type="veh_passenger" depart="246.13" departLane="best" from="406210052#5" to="405545581#0"/>
    <trip id="veh87" type="veh_passenger" depart="248.99" departLane="best" from="755844278#2" to="-13360316#15"/>
    <trip id="veh88" type="veh_passenger" depart="251.85" departLane="best" from="1194285986" to="1036500992"/>
    <trip id="veh89" type="veh_passenger" depart="254.72" departLane="best" from="406242906" to="-406215610#3"/>
    <trip id="veh90" type="veh_passenger" depart="257.58" departLane="best" from="-13404578#6" to="13355868"/>
    <trip id="veh91" type="veh_passenger" depart="260.44" departLane="best" from="1264201018#0" to="-406259064#8"/>
    <trip id="veh92" type="veh_passenger" depart="263.30" departLane="best" from="202756206#3" to="604060288"/>
    <trip id="veh93" type="veh_passenger" depart="266.16" departLane="best" from="-13307004#12" to="406242933#2"/>
    <trip id="veh94" type="veh_passenger" depart="269.03" departLane="best" from="-13399210#49" to="13287422#8"/>
    <trip id="veh95" type="veh_passenger" depart="271.89" departLane="best" from="929022781#0" to="406242637#0"/>
    <trip id="veh96" type="veh_passenger" depart="274.75" departLane="best" from="755844258#0" to="604060294"/>
    <trip id="veh97" type="veh_passenger" depart="277.61" departLane="best" from="406242638" to="13399210#57"/>
    <trip id="veh98" type="veh_passenger" depart="280.47" departLane="best" from="13360316#17" to="-13468047"/>
    <trip id="veh99" type="veh_passenger" depart="283.34" departLane="best" from="-1194285984#5" to="-13307004#16"/>
    <trip id="veh100" type="veh_passenger" depart="286.20" departLane="best" from="1051736211#7" to="762263572#0"/>
    <trip id="veh101" type="veh_passenger" depart="289.06" departLane="best" from="405547258#5" to="406232649#0"/>
    <trip id="veh102" type="veh_passenger" depart="291.92" departLane="best" from="-13315528#3" to="-13323117#2"/>
    <trip id="veh104" type="veh_passenger" depart="297.65" departLane="best" from="13403018#1" to="406210052#1"/>
    <trip id="veh105" type="veh_passenger" depart="300.51" departLane="best" from="-13387358#21" to="-59712281#3"/>
    <trip id="veh106" type="veh_passenger" depart="303.37" departLane="best" from="755844258#0" to="13471953#3"/>
    <trip id="veh107" type="veh_passenger" depart="306.23" departLane="best" departSpeed="max" from="-13305509" to="182072578#0"/>
    <trip id="veh108" type="veh_passenger" depart="309.09" departLane="best" from="-13372985#18" to="406242911#0"/>
    <trip id="veh109" type="veh_passenger" depart="311.96" departLane="best" from="-13387358#3" to="72011935#8"/>
    <trip id="veh110" type="veh_passenger" depart="314.82" departLane="best" from="-13323113#1" to="13435460#14"/>
    <trip id="veh111" type="veh_passenger" depart="317.68" departLane="best" from="-13466542#0" to="405545581#2"/>
    <trip id="veh112" type="veh_passenger" depart="320.54" departLane="best" from="406259064#4" to="-406215610#0"/>
    <trip id="veh114" type="veh_passenger" depart="326.27" departLane="best" from="-1264201014" to="182043866#1"/>
    <trip id="veh115" type="veh_passenger" depart="329.13" departLane="best" from="13387358#18" to="604060296#6"/>
    <trip id="veh116" type="veh_passenger" depart="331.99" departLane="best" from="-13433283#1" to="406209734#3"/>
    <trip id="veh117" type="veh_passenger" depart="334.85" departLane="best" from="-13471953#2" to="-13304517#2"/>
    <trip id="veh118" type="veh_passenger" depart="337.71" departLane="best" from="405545577#1" to="-604060313"/>
    <trip id="veh119" type="veh_passenger" depart="340.58" departLane="best" from="-412227861" to="406215666#2"/>
    <trip id="veh120" type="veh_passenger" depart="343.44" departLane="best" from="-13315528#5" to="-13360316#9"/>
    <trip id="veh122" type="veh_passenger" depart="349.16" departLane="best" from="-13315528#6" to="-13468047"/>
    <trip id="veh123" type="veh_passenger" depart="352.02" departLane="best" from="405547258#5" to="604060296#4"/>
    <trip id="veh124" type="veh_passenger" depart="354.89" departLane="best" from="1020225870#0" to="13399210#31"/>
    <trip id="veh125" type="veh_passenger" depart="357.75" departLane="best" from="406241606" to="405546357#2"/>
    <trip id="veh126" type="veh_passenger" depart="360.61" departLane="best" from="192503244#2" to="762263573#2"/>
    <trip id="veh127" type="veh_passenger" depart="363.47" departLane="best" from="405544796#0" to="-1090736691"/>
    <trip id="veh128" type="veh_passenger" depart="366.33" departLane="best" from="406241587#0" to="-599510796#0"/>
    <trip id="veh129" type="veh_passenger" depart="369.20" departLane="best" from="405544796#6" to="604060296#9"/>
    <trip id="veh130" type="veh_passenger" depart="372.06" departLane="best" from="13372985#7" to="13372985#15"/>
    <trip id="veh131" type="veh_passenger" depart="374.92" departLane="best" departSpeed="max" from="-13352141" to="13435466#3"/>
    <trip id="veh132" type="veh_passenger" depart="377.78" departLane="best" from="-406210052#6" to="259846930#2"/>
    <trip id="veh133" type="veh_passenger" depart="380.64" departLane="best" from="405547257" to="-13460918#10"/>
    <trip id="veh134" type="veh_passenger" depart="383.51" departLane="best" from="334267468#2" to="-406259061#2"/>
    <trip id="veh136" type="veh_passenger" depart="389.23" departLane="best" from="1324864130#1" to="-406259064#6"/>
    <trip id="veh138" type="veh_passenger" depart="394.95" departLane="best" from="334267468#4" to="406259060"/>
    <trip id="veh139" type="veh_passenger" depart="397.82" departLane="best" from="406215616#1" to="13435460#8"/>
    <trip id="veh140" type="veh_passenger" depart="400.68" departLane="best" from="13287422#11" to="1090736692#1"/>
    <trip id="veh141" type="veh_passenger" depart="403.54" departLane="best" from="-13315528#8" to="-406259064#7"/>
    <trip id="veh142" type="veh_passenger" depart="406.40" departLane="best" from="414764043" to="13434105#2"/>
    <trip id="veh143" type="veh_passenger" depart="409.26" departLane="best" from="406241609#0" to="182043866#0"/>
    <trip id="veh144" type="veh_passenger" depart="412.13" departLane="best" from="-13383857#3" to="13381895#3"/>
    <trip id="veh145" type="veh_passenger" depart="414.99" departLane="best" from="-406259064#9" to="43080181"/>
    <trip id="veh146" type="veh_passenger" depart="417.85" departLane="best" from="406232653#1" to="406242933#0"/>
    <trip id="veh147" type="veh_passenger" depart="420.71" departLane="best" from="-406264569#1" to="13467852#4"/>
    <trip id="veh148" type="veh_passenger" depart="423.57" departLane="best" from="202756206#2" to="13360316#6"/>
    <trip id="veh149" type="veh_passenger" depart="426.44" departLane="best" from="406216725#0" to="406259064#8"/>
    <trip id="veh151" type="veh_passenger" depart="432.16" departLane="best" from="-13387358#20" to="604060295#1"/>
    <trip id="veh152" type="veh_passenger" depart="435.02" departLane="best" from="406242917#0" to="755844268#3"/>
    <trip id="veh153" type="veh_passenger" depart="437.88" departLane="best" from="406233346#1" to="406259064#5"/>
    <trip id="veh154" type="veh_passenger" depart="440.75" departLane="best" from="-1194285984#0" to="406215616#6"/>
    <trip id="veh155" type="veh_passenger" depart="443.61" departLane="best" from="-692908076#1" to="604060296#0"/>
    <trip id="veh156" type="veh_passenger" depart="446.47" departLane="best" from="755844268#1" to="406259057#1"/>
    <trip id="veh157" type="veh_passenger" depart="449.33" departLane="best" from="406233346#1" to="-406259062#0"/>
    <trip id="veh158" type="veh_passenger" depart="452.19" departLane="best" departSpeed="max" from="406216737" to="-13364068#4"/>
    <trip id="veh159" type="veh_passenger" depart="455.06" departLane="best" from="-406258115#1" to="406242927#1"/>
    <trip id="veh160" type="veh_passenger" depart="457.92" departLane="best" from="-13448799#6" to="406241596#0"/>
    <trip id="veh161" type="veh_passenger" depart="460.78" departLane="best" from="-13315528#9" to="-72011935#0"/>
    <trip id="veh162" type="veh_passenger" depart="463.64" departLane="best" from="406232651" to="-243612604#0"/>
    <trip id="veh163" type="veh_passenger" depart="466.50" departLane="best" from="1194285983#0" to="-13436228#1"/>
    <trip id="veh164" type="veh_passenger" depart="469.37" departLane="best" from="-604060313" to="406259057#1"/>
    <trip id="veh165" type="veh_passenger" depart="472.23" departLane="best" from="72011935#9" to="-406259064#8"/>
    <trip id="veh167" type="veh_passenger" depart="477.95" departLane="best" from="755844275#2" to="13412607#2"/>
    <trip id="veh168" type="veh_passenger" depart="480.81" departLane="best" from="604060296#1" to="13372985#14"/>
    <trip id="veh169" type="veh_passenger" depart="483.68" departLane="best" from="755844260#0" to="13426333#1"/>
    <trip id="veh170" type="veh_passenger" depart="486.54" departLane="best" from="72011935#3" to="-406259061#5"/>
    <trip id="veh171" type="veh_passenger" depart="489.40" departLane="best" departSpeed="max" from="-13352439" to="13345308#15"/>
    <trip id="veh172" type="veh_passenger" depart="492.26" departLane="best" from="406210052#4" to="-72011935#6"/>
    <trip id="veh173" type="veh_passenger" depart="495.12" departLane="best" from="-599510796#0" to="13399210#19"/>
    <trip id="veh174" type="veh_passenger" depart="497.99" departLane="best" from="1090736692#4" to="13471148#0"/>
    <trip id="veh175" type="veh_passenger" depart="500.85" departLane="best" from="-243612604#1" to="-405547257"/>
    <trip id="veh176" type="veh_passenger" depart="503.71" departLane="best" from="-1008405678#4" to="604060294"/>
    <trip id="veh177" type="veh_passenger" depart="506.57" departLane="best" from="13399210#16" to="-406210052#3"/>
    <trip id="veh178" type="veh_passenger" depart="509.43" departLane="best" from="406215616#2" to="405545580#0"/>
    <trip id="veh179" type="veh_passenger" depart="512.30" departLane="best" from="1014617514#0" to="13315528#4"/>
    <trip id="veh180" type="veh_passenger" depart="515.16" departLane="best" from="405544796#6" to="1014617514#0"/>
    <trip id="veh181" type="veh_passenger" depart="518.02" departLane="best" from="405547258#2" to="-604060314#0"/>
    <trip id="veh182" type="veh_passenger" depart="520.88" departLane="best" from="406259065#0" to="13315528#10"/>
    <trip id="veh183" type="veh_passenger" depart="523.74" departLane="best" from="1194285986" to="-59712281#1"/>
    <trip id="veh184" type="veh_passenger" depart="526.61" departLane="best" from="-13372140#1" to="-13323113#0"/>
    <trip id="veh185" type="veh_passenger" depart="529.47" departLane="best" from="604060296#4" to="405545581#3"/>
    <trip id="veh186" type="veh_passenger" depart="532.33" departLane="best" from="414764043" to="334267468#12"/>
    <trip id="veh187" type="veh_passenger" depart="535.19" departLane="best" from="-406259064#3" to="-13435460#0"/>
    <trip id="veh188" type="veh_passenger" depart="538.05" departLane="best" from="-1008405678#1" to="-406504587"/>
    <trip id="veh189" type="veh_passenger" depart="540.91" departLane="best" from="-13287422#18" to="13471953#3"/>
    <trip id="veh190" type="veh_passenger" depart="543.78" departLane="best" from="405544796#0" to="13368326"/>
    <trip id="veh191" type="veh_passenger" depart="546.64" departLane="best" from="13307004#1" to="-13468047"/>
    <trip id="veh192" type="veh_passenger" depart="549.50" departLane="best" departSpeed="max" from="13344102#0" to="43542243#2"/>
    <trip id="veh193" type="veh_passenger" depart="552.36" departLane="best" from="406232653#1" to="-13404578#0"/>
    <trip id="veh194" type="veh_passenger" depart="555.22" departLane="best" departSpeed="max" from="-13325540#1" to="13399210#29"/>
    <trip id="veh196" type="veh_passenger" depart="560.95" departLane="best" from="406242635#2" to="406215666#1"/>
    <trip id="veh197" type="veh_passenger" depart="563.81" departLane="best" from="405545577#1" to="-206911853#2"/>
    <trip id="veh198" type="veh_passenger" depart="566.67" departLane="best" from="-13404578#3" to="-1194285984#0"/>
    <trip id="veh199" type="veh_passenger" depart="569.53" departLane="best" from="-182072578#5" to="13373063#1"/>
    <trip id="veh200" type="veh_passenger" depart="572.40" departLane="best" from="406242639" to="13315528#8"/>
    <trip id="veh201" type="veh_passenger" depart="575.26" departLane="best" from="1257699420#0" to="334267468#6"/>
    <trip id="veh202" type="veh_passenger" depart="578.12" departLane="best" from="13364068#3" to="-406210052#6"/>
    <trip id="veh203" type="veh_passenger" depart="580.98" departLane="best" from="405544796#1" to="-1051736211#2"/>
    <trip id="veh205" type="veh_passenger" depart="586.71" departLane="best" departSpeed="max" from="-13352141" to="13325540#1"/>
    <trip id="veh206" type="veh_passenger" depart="589.57" departLane="best" from="13383857#4" to="-13287422#7"/>
    <trip id="veh207" type="veh_passenger" depart="592.43" departLane="best" from="202756206#2" to="406242649#1"/>
    <trip id="veh208" type="veh_passenger" depart="595.29" departLane="best" from="-13315528#4" to="1008405679"/>
    <trip id="veh209" type="veh_passenger" depart="598.15" departLane="best" from="405544796#7" to="770571740"/>
    <trip id="veh210" type="veh_passenger" depart="601.02" departLane="best" from="13467852#0" to="692908076#0"/>
    <trip id="veh211" type="veh_passenger" depart="603.88" departLane="best" from="406259064#5" to="334267468#10"/>
    <trip id="veh212" type="veh_passenger" depart="606.74" departLane="best" from="405547258#1" to="13392839#1"/>
    <trip id="veh213" type="veh_passenger" depart="609.60" departLane="best" from="406241603#0" to="-13435460#0"/>
    <trip id="veh214" type="veh_passenger" depart="612.46" departLane="best" from="406264568" to="406215636#3"/>
    <trip id="veh215" type="veh_passenger" depart="615.33" departLane="best" from="13345308#10" to="406259058#3"/>
    <trip id="veh217" type="veh_passenger" depart="621.05" departLane="best" from="-13317660#0" to="-406264570#2"/>
    <trip id="veh218" type="veh_passenger" depart="623.91" departLane="best" from="-406210052#5" to="-755844257#1"/>
    <trip id="veh219" type="veh_passenger" depart="626.77" departLane="best" from="-13399210#21" to="13387358#23"/>
    <trip id="veh220" type="veh_passenger" depart="629.64" departLane="best" from="-13466542#0" to="405546354"/>
    <trip id="veh223" type="veh_passenger" depart="638.22" departLane="best" from="1257699424#0" to="-13461698"/>
    <trip id="veh225" type="veh_passenger" depart="643.95" departLane="best" from="13448799#6" to="405546355"/>
    <trip id="veh228" type="veh_passenger" depart="652.53" departLane="best" departSpeed="max" from="-72016662#2" to="406215666#4"/>
    <trip id="veh229" type="veh_passenger" depart="655.39" departLane="best" from="406242645#2" to="715773496"/>
    <trip id="veh230" type="veh_passenger" depart="658.26" departLane="best" from="1264201014" to="406215650"/>
    <trip id="veh231" type="veh_passenger" depart="661.12" departLane="best" from="-13399210#37" to="24672357#0"/>
    <trip id="veh232" type="veh_passenger" depart="663.98" departLane="best" from="13448799#1" to="-182072578#8"/>
    <trip id="veh233" type="veh_passenger" depart="666.84" departLane="best" departSpeed="max" from="-13293747#0" to="-1194285984#5"/>
    <trip id="veh234" type="veh_passenger" depart="669.70" departLane="best" from="-72011935#0" to="405545583#0"/>
    <trip id="veh236" type="veh_passenger" depart="675.43" departLane="best" from="-13329510#0" to="13381895#3"/>
    <trip id="veh237" type="veh_passenger" depart="678.29" departLane="best" from="243612604#1" to="-1194285984#3"/>
    <trip id="veh238" type="veh_passenger" depart="681.15" departLane="best" from="1166308294#6" to="13448910#2"/>
    <trip id="veh239" type="veh_passenger" depart="684.01" departLane="best" from="-1194285984#3" to="405544793#1"/>
    <trip id="veh240" type="veh_passenger" depart="686.88" departLane="best" from="13373063#1" to="13364068#2"/>
    <trip id="veh241" type="veh_passenger" depart="689.74" departLane="best" from="-13287422#8" to="-1264201018#2"/>
    <trip id="veh242" type="veh_passenger" depart="692.60" departLane="best" from="13435460#4" to="1008405678#3"/>
    <trip id="veh243" type="veh_passenger" depart="695.46" departLane="best" from="406215666#3" to="1264201018#2"/>
    <trip id="veh244" type="veh_passenger" depart="698.32" departLane="best" from="406215636#3" to="406241587#2"/>
    <trip id="veh245" type="veh_passenger" depart="701.19" departLane="best" from="-206911853#4" to="13329510#1"/>
    <trip id="veh246" type="veh_passenger" depart="704.05" departLane="best" from="-1166308294#4" to="13426333#1"/>
    <trip id="veh247" type="veh_passenger" depart="706.91" departLane="best" from="929022781#1" to="1090736692#2"/>
    <trip id="veh248" type="veh_passenger" depart="709.77" departLane="best" from="405544792#0" to="406232643#0"/>
    <trip id="veh249" type="veh_passenger" depart="712.63" departLane="best" from="405544795#0" to="406215666#5"/>
    <trip id="veh250" type="veh_passenger" depart="715.50" departLane="best" from="604060314#4" to="-13448910#0"/>
    <trip id="veh251" type="veh_passenger" depart="718.36" departLane="best" from="-1166308294#6" to="13399210#17"/>
    <trip id="veh252" type="veh_passenger" depart="721.22" departLane="best" departSpeed="max" from="-13368326" to="405545578"/>
    <trip id="veh253" type="veh_passenger" depart="724.08" departLane="best" from="-13412607#1" to="-182072578#4"/>
    <trip id="veh255" type="veh_passenger" depart="729.81" departLane="best" from="-13399210#0" to="271237819#2"/>
    <trip id="veh256" type="veh_passenger" depart="732.67" departLane="best" from="406215634#0" to="13372985#12"/>
    <trip id="veh257" type="veh_passenger" depart="735.53" departLane="best" from="406242635#8" to="72016662#1"/>
    <trip id="veh258" type="veh_passenger" depart="738.39" departLane="best" departSpeed="max" from="-13352439" to="1194285984#1"/>
    <trip id="veh259" type="veh_passenger" depart="741.25" departLane="best" from="-406264567#2" to="405545581#3"/>
    <trip id="veh260" type="veh_passenger" depart="744.12" departLane="best" from="-692908076#0" to="13304517#5"/>