<?xml version="1.0" encoding="UTF-8"?>

<!-- generated on 2025-03-07 22:11:03 by Eclipse SUMO netconvert Version 1.22.0
<netconvertConfiguration xmlns:xsi="http://www.w3.org/2001/XMLSchema-instance" xsi:noNamespaceSchemaLocation="http://sumo.dlr.de/xsd/netconvertConfiguration.xsd">

    <input>
        <type-files value="${SUMO_HOME}/data/typemap/osmNetconvert.typ.xml,${SUMO_HOME}/data/typemap/osmNetconvertAerialway.typ.xml"/>
        <osm-files value="osm_bbox.osm.xml.gz"/>
    </input>

    <output>
        <output-file value="osm.net.xml.gz"/>
        <output.street-names value="true"/>
        <output.original-names value="true"/>
        <ptstop-output value="osm_stops.add.xml"/>
        <ptline-output value="osm_ptlines.xml"/>
    </output>

    <projection>
        <proj.utm value="true"/>
    </projection>

    <processing>
        <geometry.remove value="true"/>
        <roundabouts.guess value="true"/>
    </processing>

    <tls_building>
        <tls.discard-simple value="true"/>
        <tls.join value="true"/>
        <tls.guess-signals value="true"/>
        <tls.default-type value="actuated"/>
    </tls_building>

    <ramp_guessing>
        <ramps.guess value="true"/>
    </ramp_guessing>

    <junctions>
        <junctions.join value="true"/>
        <junctions.corner-detail value="5"/>
    </junctions>

    <railway>
        <railway.topology.repair value="true"/>
    </railway>

</netconvertConfiguration>
-->

<additional xmlns:xsi="http://www.w3.org/2001/XMLSchema-instance" xsi:noNamespaceSchemaLocation="http://sumo.dlr.de/xsd/additional_file.xsd">
    <busStop id="-10711451385" name="Arcadia Gold Line Station (North of Santa Clara Street)" lane="-1151930004_0" startPos="34.34" endPos="49.34" friendlyPos="true"/>
    <busStop id="-10711471420" name="First Avenue Middle School/ North of Diamond Northbound" lane="-1264201017_0" startPos="4.46" endPos="19.46" friendlyPos="true"/>
    <busStop id="-10711471435" name="S/O Fano Northbound" lane="-13373063#8_0" startPos="0.00" endPos="15.00" friendlyPos="true"/>
    <busStop id="-10711471437" name="North of Duarte and 1st Northbound" lane="-13373063#16_0" startPos="0.00" endPos="11.67" friendlyPos="true"/>
    <busStop id="-10716009486" name="Duarte &amp; El Monte(West of El Monte) Eastbound" lane="-406209734#1_0" startPos="73.69" endPos="88.69" friendlyPos="true"/>
    <busStop id="-4224087190" name="Foothill Transit 187" lane="-405547258#0_0" startPos="2.79" endPos="17.79" friendlyPos="true"/>
    <busStop id="-4224888195" name="Metro 268" lane="-690987761_0" startPos="0.00" endPos="15.00" friendlyPos="true"/>
    <busStop id="-6978429868" name="264 / City of Hope" lane="-406209734#1_0" startPos="88.49" endPos="103.49" friendlyPos="true"/>
    <busStop id="10694224760" name="Huntington Drive at East of Holly Avenue" lane="405545584#2_0" startPos="23.46" endPos="38.46" friendlyPos="true" lines="Green"/>
    <busStop id="10694224761" name="Huntington Drive at Methodist Hospital" lane="604060293_0" startPos="5.87" endPos="20.87" friendlyPos="true" lines="Green"/>
    <busStop id="10694224762" name="Huntington Drive at Police Station" lane="604060287_0" startPos="11.72" endPos="26.72" friendlyPos="true" lines="Green"/>
    <busStop id="10694238030" name="Huntington &amp; Santa Anita Eastbound" lane="406232664#0_0" startPos="1.95" endPos="16.95" friendlyPos="true" lines="Green"/>
    <busStop id="10694238031" name="Westbound Santa Clara Street, West of 1st Avenue" lane="604060314#1_0" startPos="0.00" endPos="15.00" friendlyPos="true" lines="Green"/>
    <busStop id="10694238032" name="City Hall Parking Lot" lane="1149567881#1_0" startPos="0.00" endPos="10.08" friendlyPos="true" lines="Green"/>
    <busStop id="10694238033" name="Huntington Drive at West of Centennial" lane="405546357#2_0" startPos="8.82" endPos="23.82" friendlyPos="true" lines="Green"/>
    <busStop id="10694238034" name="Huntington Drive at West of Holly Avenue" lane="334631554#0_0" startPos="24.33" endPos="39.33" friendlyPos="true" lines="Green"/>
    <busStop id="10694238036" name="Arboretum: Parking/Main entrance" lane="187986237_0" startPos="45.99" endPos="60.99" friendlyPos="true" lines="Green"/>
    <busStop id="10711451386" name="Arcadia Gold Line Station (North East Corner 1st &amp; Santa Clara))" lane="13346560#0_0" startPos="17.48" endPos="32.48" friendlyPos="true"/>
    <busStop id="10711471434" name="S/O Fano Southbound" lane="13373063#9_0" startPos="0.00" endPos="15.00" friendlyPos="true"/>
    <busStop id="10711471449" name="South of Duarte Southbound" lane="271237819#0_0" startPos="0.00" endPos="2.69" friendlyPos="true"/>
    <busStop id="10716009487" name="East of El Monte Westbound" lane="406259057#8_0" startPos="82.43" endPos="97.43" friendlyPos="true"/>
    <busStop id="10716009499" name="Westbound Duarte &amp; Santa Anita Westbound" lane="406259058#3_0" startPos="0.00" endPos="13.20" friendlyPos="true"/>
    <busStop id="10716009500" name="North of Duarte Northbound" lane="406241601#0_0" startPos="11.20" endPos="26.20" friendlyPos="true"/>
    <busStop id="10716013323" name="Westbound on Huntington (@ 1st Avenue) Southbound" lane="755844274_0" startPos="37.96" endPos="52.96" friendlyPos="true"/>
    <busStop id="10716018715" name="Santa Anita &amp; Genoa Northbound" lane="406241587#1_0" startPos="63.59" endPos="78.59" friendlyPos="true"/>
    <busStop id="10716018716" name="Santa Anita &amp; Genoa Southbound" lane="406242635#8_0" startPos="84.22" endPos="99.22" friendlyPos="true"/>
    <busStop id="10716018720" name="Santa Anita &amp; Diamond Northbound" lane="406241587#10_0" startPos="10.24" endPos="25.24" friendlyPos="true"/>
    <busStop id="1247809232" name="Metro 179, 268;Foothill Transit 187" lane="414764044#0_0" startPos="4.85" endPos="19.85" friendlyPos="true"/>
    <busStop id="1247811851" name="Metro 79;Foothill Transit 187" lane="405545583#0_0" startPos="36.83" endPos="51.83" friendlyPos="true"/>
    <busStop id="4159092342" name="Duarte Santa Anita" lane="406259058#3_0" startPos="0.00" endPos="13.20" friendlyPos="true"/>
    <busStop id="4159092343" name="Duarte Santa Anita" lane="406259065#0_0" startPos="10.35" endPos="25.35" friendlyPos="true"/>
    <busStop id="4224076593" name="Foothill Transit 187" lane="755844281#0_0" startPos="21.59" endPos="36.59" friendlyPos="true"/>
    <busStop id="4224076594" name="Foothill Transit 187" lane="259846930#0_0" startPos="0.00" endPos="15.00" friendlyPos="true"/>
    <busStop id="4224077190" name="Foothill Transit 187" lane="192503240_0" startPos="0.00" endPos="15.00" friendlyPos="true"/>
    <busStop id="4224081494" name="Metro 79; Foothill Transit 187" lane="1065518636#0_0" startPos="0.00" endPos="15.00" friendlyPos="true"/>
    <busStop id="4224086190" name="Foothill Transit 187" lane="755844262#0_0" startPos="6.47" endPos="21.47" friendlyPos="true"/>
    <busStop id="4224086191" name="Foothill Transit 187" lane="755844274_0" startPos="20.29" endPos="35.29" friendlyPos="true"/>
    <busStop id="4224873296" name="Metro 268;Westfield Mall - South Bound Baldwin" lane="406215616#0_0" startPos="0.00" endPos="0.20" friendlyPos="true" lines="Green"/>
    <busStop id="4224873297" name="Metro 268" lane="406215613#0_0" startPos="37.10" endPos="52.10" friendlyPos="true"/>
    <busStop id="4224888196" name="Metro 268;Westfield Mall - North Bound Baldwin" lane="406215675#1_0" startPos="4.48" endPos="19.48" friendlyPos="true" lines="Green"/>
    <busStop id="4264650594" name="Metro 268" lane="406216725#0_0" startPos="32.06" endPos="47.06" friendlyPos="true"/>
    <busStop id="4264655394" name="Metro 268" lane="415101865#0_0" startPos="5.94" endPos="20.94" friendlyPos="true"/>
    <busStop id="4317281700" name="Metro 79;Foothill Transit 187" lane="405546357#6_0" startPos="0.00" endPos="14.64" friendlyPos="true"/>
    <busStop id="4317286104" name="Metro 79" lane="406242646#0_0" startPos="8.67" endPos="23.67" friendlyPos="true"/>
    <busStop id="4317293801" name="Metro 79" lane="405546357#2_0" startPos="0.00" endPos="15.00" friendlyPos="true"/>
    <busStop id="4317298691" name="Metro 79" lane="604060314#1_0" startPos="13.20" endPos="28.20" friendlyPos="true"/>
    <busStop id="4317331589" name="Metro 179;Foothill Transit 187" lane="334267468#2_0" startPos="0.71" endPos="15.71" friendlyPos="true"/>
    <busStop id="6978428566" name="Metro 79;Foothill Transit 187" lane="334631554#0_0" startPos="36.30" endPos="51.30" friendlyPos="true"/>
    <busStop id="6978429869" name="264 / Altadena" lane="406259057#8_0" startPos="85.72" endPos="100.72" friendlyPos="true"/>
    <busStop id="7095131709" name="Metro 79;Foothill Transit 187" lane="630143605_0" startPos="4.62" endPos="19.62" friendlyPos="true"/>
    <busStop id="7095131710" name="Metro 79" lane="405545578_0" startPos="8.20" endPos="23.20" friendlyPos="true"/>
    <busStop id="7095131711" name="Metro 79" lane="604060292_0" startPos="8.81" endPos="23.81" friendlyPos="true"/>
    <busStop id="741072217" name="Metro 79, 264;Foothill Transit 187" lane="405544796#0_0" startPos="0.00" endPos="15.00" friendlyPos="true"/>
</additional>
