<additional>
    <inductionLoop id="det_-101001199_0" lane="-101001199_0" pos="71.56" freq="60" file="detector_output.xml"/>
    <inductionLoop id="det_-4480316#1_0" lane="-4480316#1_0" pos="44.03" freq="60" file="detector_output.xml"/>
    <inductionLoop id="det_-4480316#1_1" lane="-4480316#1_1" pos="44.03" freq="60" file="detector_output.xml"/>
    <inductionLoop id="det_1065518636#0_0" lane="1065518636#0_0" pos="30.12" freq="60" file="detector_output.xml"/>
    <inductionLoop id="det_1065518636#0_1" lane="1065518636#0_1" pos="30.12" freq="60" file="detector_output.xml"/>
    <inductionLoop id="det_1065518636#0_2" lane="1065518636#0_2" pos="30.12" freq="60" file="detector_output.xml"/>
    <inductionLoop id="det_13435460#4_0" lane="13435460#4_0" pos="32.32" freq="60" file="detector_output.xml"/>
    <inductionLoop id="det_192503236#0_0" lane="192503236#0_0" pos="32.05" freq="60" file="detector_output.xml"/>
    <inductionLoop id="det_192503236#0_1" lane="192503236#0_1" pos="32.05" freq="60" file="detector_output.xml"/>
    <inductionLoop id="det_192503236#0_2" lane="192503236#0_2" pos="32.05" freq="60" file="detector_output.xml"/>
    <inductionLoop id="det_334631554#0_0" lane="334631554#0_0" pos="318.76" freq="60" file="detector_output.xml"/>
    <inductionLoop id="det_405546356#3_0" lane="405546356#3_0" pos="67.39" freq="60" file="detector_output.xml"/>
    <inductionLoop id="det_405546356#3_1" lane="405546356#3_1" pos="67.39" freq="60" file="detector_output.xml"/>
    <inductionLoop id="det_405546356#3_2" lane="405546356#3_2" pos="67.39" freq="60" file="detector_output.xml"/>
    <inductionLoop id="det_406233349#0_0" lane="406233349#0_0" pos="41.63" freq="60" file="detector_output.xml"/>
    <inductionLoop id="det_406233349#0_1" lane="406233349#0_1" pos="41.63" freq="60" file="detector_output.xml"/>
    <inductionLoop id="det_406233349#0_2" lane="406233349#0_2" pos="41.63" freq="60" file="detector_output.xml"/>
    <inductionLoop id="det_406233349#0_3" lane="406233349#0_3" pos="41.63" freq="60" file="detector_output.xml"/>
    <inductionLoop id="det_406234624#0_0" lane="406234624#0_0" pos="57.27" freq="60" file="detector_output.xml"/>
    <inductionLoop id="det_406234624#0_1" lane="406234624#0_1" pos="57.27" freq="60" file="detector_output.xml"/>
    <inductionLoop id="det_406234624#0_2" lane="406234624#0_2" pos="57.27" freq="60" file="detector_output.xml"/>
    <inductionLoop id="det_406234624#0_3" lane="406234624#0_3" pos="57.27" freq="60" file="detector_output.xml"/>
    <inductionLoop id="det_406234624#0_4" lane="406234624#0_4" pos="57.27" freq="60" file="detector_output.xml"/>
    <inductionLoop id="det_406241587#5_0" lane="406241587#5_0" pos="47.98" freq="60" file="detector_output.xml"/>
    <inductionLoop id="det_406241587#5_1" lane="406241587#5_1" pos="47.98" freq="60" file="detector_output.xml"/>
    <inductionLoop id="det_406242635#2_0" lane="406242635#2_0" pos="105.69" freq="60" file="detector_output.xml"/>
    <inductionLoop id="det_406242635#2_1" lane="406242635#2_1" pos="105.69" freq="60" file="detector_output.xml"/>
    <inductionLoop id="det_406242644#0_0" lane="406242644#0_0" pos="41.09" freq="60" file="detector_output.xml"/>
    <inductionLoop id="det_406242644#0_1" lane="406242644#0_1" pos="41.09" freq="60" file="detector_output.xml"/>
    <inductionLoop id="det_406242644#0_2" lane="406242644#0_2" pos="41.09" freq="60" file="detector_output.xml"/>
    <inductionLoop id="det_406242644#0_3" lane="406242644#0_3" pos="41.09" freq="60" file="detector_output.xml"/>
    <inductionLoop id="det_406242644#0_4" lane="406242644#0_4" pos="41.09" freq="60" file="detector_output.xml"/>
    <inductionLoop id="det_406242646#0_0" lane="406242646#0_0" pos="23.4" freq="60" file="detector_output.xml"/>
    <inductionLoop id="det_406242646#0_1" lane="406242646#0_1" pos="23.4" freq="60" file="detector_output.xml"/>
    <inductionLoop id="det_406242646#0_2" lane="406242646#0_2" pos="23.4" freq="60" file="detector_output.xml"/>
    <inductionLoop id="det_406242646#0_3" lane="406242646#0_3" pos="23.4" freq="60" file="detector_output.xml"/>
    <inductionLoop id="det_406242646#0_4" lane="406242646#0_4" pos="23.4" freq="60" file="detector_output.xml"/>
    <inductionLoop id="det_598628202#18_0" lane="598628202#18_0" pos="139.04" freq="60" file="detector_output.xml"/>
    <inductionLoop id="det_604060297_0" lane="604060297_0" pos="73.32" freq="60" file="detector_output.xml"/>
    <inductionLoop id="det_630143603_0" lane="630143603_0" pos="52.42" freq="60" file="detector_output.xml"/>
    <inductionLoop id="det_630143603_1" lane="630143603_1" pos="52.42" freq="60" file="detector_output.xml"/>
    <inductionLoop id="det_630143603_2" lane="630143603_2" pos="52.42" freq="60" file="detector_output.xml"/>
    <inductionLoop id="det_630143603_3" lane="630143603_3" pos="52.42" freq="60" file="detector_output.xml"/>
    <inductionLoop id="det_755844260#0_0" lane="755844260#0_0" pos="24.98" freq="60" file="detector_output.xml"/>
    <inductionLoop id="det_755844260#0_1" lane="755844260#0_1" pos="24.98" freq="60" file="detector_output.xml"/>
    <inductionLoop id="det_755844260#0_2" lane="755844260#0_2" pos="24.98" freq="60" file="detector_output.xml"/>
</additional>
