<?xml version="1.0" encoding="UTF-8"?>

<!-- generated on 2025-05-02 12:19:37 by Eclipse SUMO netedit Version 1.22.0
<neteditConfiguration xmlns:xsi="http://www.w3.org/2001/XMLSchema-instance" xsi:noNamespaceSchemaLocation="http://sumo.dlr.de/xsd/neteditConfiguration.xsd">

    <input>
        <sumocfg-file value="/Users/nedasarbalavandeymir/sumo/2025-04-29-11-01-31/osm.sumocfg"/>
        <sumo-net-file value="/Users/nedasarbalavandeymir/sumo/2025-04-29-11-01-31/osm.net.xml.gz"/>
    </input>

    <output>
        <output-file value="/Users/nedasarbalavandeymir/sumo/2025-04-29-11-01-31/osm.net.xml.gz"/>
        <output.street-names value="true"/>
    </output>

    <processing>
        <geometry.min-radius.fix.railways value="false"/>
        <geometry.max-grade.fix value="false"/>
        <offset.disable-normalization value="true"/>
        <lefthand value="0"/>
    </processing>

    <junctions>
        <no-turnarounds value="true"/>
        <junctions.corner-detail value="5"/>
        <junctions.limit-turn-speed value="5.50"/>
        <rectangular-lane-cut value="0"/>
    </junctions>

    <pedestrian>
        <walkingareas value="0"/>
    </pedestrian>

</neteditConfiguration>
-->

<net version="1.20" junctionCornerDetail="5" limitTurnSpeed="5.50" xmlns:xsi="http://www.w3.org/2001/XMLSchema-instance" xsi:noNamespaceSchemaLocation="http://sumo.dlr.de/xsd/net_file.xsd">

    <location netOffset="-403079.68,-3777239.94" convBoundary="0.00,0.00,2029.88,1011.47" origBoundary="-118.051135,34.131628,-118.029169,34.140780" projParameter="+proj=utm +zone=11 +ellps=WGS84 +datum=WGS84 +units=m +no_defs"/>

    <type id="highway.primary" priority="12" numLanes="2" speed="27.78" disallow="tram rail_urban rail rail_electric rail_fast ship container cable_car subway aircraft wheelchair scooter drone" oneway="0"/>
    <type id="highway.primary_link" priority="7" numLanes="1" speed="22.22" disallow="tram rail_urban rail rail_electric rail_fast ship container cable_car subway aircraft wheelchair scooter drone" oneway="0"/>
    <type id="highway.residential" priority="3" numLanes="1" speed="13.89" disallow="tram rail_urban rail rail_electric rail_fast ship container cable_car subway aircraft wheelchair scooter drone" oneway="0"/>
    <type id="highway.service" priority="1" numLanes="1" speed="5.56" allow="pedestrian delivery bicycle" oneway="0"/>
    <type id="highway.tertiary" priority="10" numLanes="1" speed="22.22" disallow="tram rail_urban rail rail_electric rail_fast ship container cable_car subway aircraft wheelchair scooter drone" oneway="0"/>

    <edge id=":10259217419_0" function="internal">
        <lane id=":10259217419_0_0" index="0" allow="pedestrian delivery bicycle" speed="5.03" length="5.01" shape="2019.78,866.98 2018.42,867.16 2017.45,867.73 2016.86,868.70 2016.66,870.06"/>
    </edge>
    <edge id=":10259217419_1" function="internal">
        <lane id=":10259217419_1_0" index="0" allow="pedestrian delivery bicycle" speed="5.56" length="9.40" shape="2019.78,866.98 2010.38,866.88"/>
    </edge>
    <edge id=":10259217419_2" function="internal">
        <lane id=":10259217419_2_0" index="0" allow="pedestrian delivery bicycle" speed="3.65" length="4.67" shape="2019.78,866.98 2018.59,866.17 2018.20,865.36 2018.61,864.57 2019.81,863.78"/>
    </edge>
    <edge id=":10259217419_3" function="internal">
        <lane id=":10259217419_3_0" index="0" allow="pedestrian delivery bicycle" speed="5.56" length="9.40" shape="2010.42,863.68 2019.81,863.78"/>
    </edge>
    <edge id=":10259217419_4" function="internal">
        <lane id=":10259217419_4_0" index="0" allow="pedestrian delivery bicycle" speed="5.56" length="10.16" shape="2010.42,863.68 2013.15,864.10 2015.11,865.31 2016.28,867.29 2016.66,870.06"/>
    </edge>
    <edge id=":10259217419_5" function="internal">
        <lane id=":10259217419_5_0" index="0" allow="pedestrian delivery bicycle" speed="3.65" length="4.67" shape="2010.42,863.68 2011.61,864.49 2012.00,865.30 2011.59,866.09 2010.38,866.88"/>
    </edge>
    <edge id=":10259217419_6" function="internal">
        <lane id=":10259217419_6_0" index="0" allow="pedestrian delivery bicycle" speed="5.07" length="5.04" shape="2013.46,870.06 2013.27,868.68 2012.70,867.69 2011.73,867.09 2010.38,866.88"/>
    </edge>
    <edge id=":10259217419_7" function="internal">
        <lane id=":10259217419_7_0" index="0" allow="pedestrian delivery bicycle" speed="5.56" length="10.20" shape="2013.46,870.06 2013.86,867.29 2015.06,865.32 2017.04,864.15 2019.81,863.78"/>
    </edge>
    <edge id=":10259217419_8" function="internal">
        <lane id=":10259217419_8_0" index="0" allow="pedestrian delivery bicycle" speed="3.65" length="4.67" shape="2013.46,870.06 2014.27,868.86 2015.07,868.46 2015.87,868.86 2016.66,870.06"/>
    </edge>
    <edge id=":10259217420_0" function="internal">
        <lane id=":10259217420_0_0" index="0" allow="pedestrian delivery bicycle" speed="3.65" length="4.67" shape="2016.65,879.64 2015.85,880.84 2015.05,881.24 2014.25,880.84 2013.45,879.64"/>
    </edge>
    <edge id=":10259217422_0" function="internal">
        <lane id=":10259217422_0_0" index="0" allow="pedestrian delivery bicycle" speed="3.65" length="4.67" shape="2026.38,886.17 2025.58,887.37 2024.78,887.77 2023.98,887.37 2023.18,886.17"/>
    </edge>
    <edge id=":10259217426_0" function="internal">
        <lane id=":10259217426_0_0" index="0" allow="pedestrian delivery bicycle" speed="5.03" length="5.01" shape="1987.69,866.69 1986.33,866.87 1985.36,867.45 1984.77,868.42 1984.58,869.78"/>
    </edge>
    <edge id=":10259217426_1" function="internal">
        <lane id=":10259217426_1_0" index="0" allow="pedestrian delivery bicycle" speed="5.56" length="9.40" shape="1987.69,866.69 1978.29,866.63"/>
    </edge>
    <edge id=":10259217426_2" function="internal">
        <lane id=":10259217426_2_0" index="0" allow="pedestrian delivery bicycle" speed="3.65" length="4.67" shape="1987.69,866.69 1986.49,865.88 1986.10,865.08 1986.50,864.28 1987.71,863.49"/>
    </edge>
    <edge id=":10259217426_3" function="internal">
        <lane id=":10259217426_3_0" index="0" allow="pedestrian delivery bicycle" speed="5.56" length="9.40" shape="1978.31,863.43 1987.71,863.49"/>
    </edge>
    <edge id=":10259217426_4" function="internal">
        <lane id=":10259217426_4_0" index="0" allow="pedestrian delivery bicycle" speed="5.56" length="10.16" shape="1978.31,863.43 1981.05,863.84 1983.01,865.04 1984.19,867.02 1984.58,869.78"/>
    </edge>
    <edge id=":10259217426_5" function="internal">
        <lane id=":10259217426_5_0" index="0" allow="pedestrian delivery bicycle" speed="3.65" length="4.67" shape="1978.31,863.43 1979.50,864.24 1979.90,865.04 1979.49,865.84 1978.29,866.63"/>
    </edge>
    <edge id=":10259217426_6" function="internal">
        <lane id=":10259217426_6_0" index="0" allow="pedestrian delivery bicycle" speed="5.06" length="5.02" shape="1981.38,869.78 1981.18,868.41 1980.61,867.43 1979.64,866.84 1978.29,866.63"/>
    </edge>
    <edge id=":10259217426_7" function="internal">
        <lane id=":10259217426_7_0" index="0" allow="pedestrian delivery bicycle" speed="5.56" length="10.19" shape="1981.38,869.78 1981.77,867.01 1982.96,865.04 1984.94,863.87 1987.71,863.49"/>
    </edge>
    <edge id=":10259217426_8" function="internal">
        <lane id=":10259217426_8_0" index="0" allow="pedestrian delivery bicycle" speed="3.65" length="4.67" shape="1981.38,869.78 1982.18,868.58 1982.98,868.18 1983.78,868.58 1984.58,869.78"/>
    </edge>
    <edge id=":10259217427_0" function="internal">
        <lane id=":10259217427_0_0" index="0" allow="pedestrian delivery bicycle" speed="3.65" length="4.67" shape="1984.57,880.13 1983.77,881.33 1982.97,881.73 1982.17,881.33 1981.37,880.13"/>
    </edge>
    <edge id=":10259217429_0" function="internal">
        <lane id=":10259217429_0_0" index="0" allow="pedestrian delivery bicycle" speed="5.07" length="5.03" shape="1923.62,869.19 1923.43,867.81 1922.85,866.83 1921.89,866.23 1920.53,866.03"/>
    </edge>
    <edge id=":10259217429_1" function="internal">
        <lane id=":10259217429_1_0" index="0" allow="pedestrian delivery bicycle" speed="5.56" length="10.20" shape="1923.62,869.19 1924.02,866.42 1925.20,864.44 1927.18,863.27 1929.96,862.89"/>
    </edge>
    <edge id=":10259217429_2" function="internal">
        <lane id=":10259217429_2_0" index="0" allow="pedestrian delivery bicycle" speed="3.65" length="4.67" shape="1923.62,869.19 1924.42,867.99 1925.22,867.59 1926.02,867.98 1926.82,869.18"/>
    </edge>
    <edge id=":10259217429_3" function="internal">
        <lane id=":10259217429_3_0" index="0" allow="pedestrian delivery bicycle" speed="5.03" length="5.01" shape="1929.93,866.09 1928.57,866.28 1927.60,866.85 1927.02,867.82 1926.82,869.18"/>
    </edge>
    <edge id=":10259217429_4" function="internal">
        <lane id=":10259217429_4_0" index="0" allow="pedestrian delivery bicycle" speed="5.56" length="9.40" shape="1929.93,866.09 1920.53,866.03"/>
    </edge>
    <edge id=":10259217429_5" function="internal">
        <lane id=":10259217429_5_0" index="0" allow="pedestrian delivery bicycle" speed="3.65" length="4.67" shape="1929.93,866.09 1928.74,865.28 1928.35,864.48 1928.75,863.68 1929.96,862.89"/>
    </edge>
    <edge id=":10259217429_6" function="internal">
        <lane id=":10259217429_6_0" index="0" allow="pedestrian delivery bicycle" speed="5.56" length="9.40" shape="1920.56,862.83 1929.96,862.89"/>
    </edge>
    <edge id=":10259217429_7" function="internal">
        <lane id=":10259217429_7_0" index="0" allow="pedestrian delivery bicycle" speed="5.56" length="10.16" shape="1920.56,862.83 1923.30,863.24 1925.25,864.44 1926.43,866.42 1926.82,869.18"/>
    </edge>
    <edge id=":10259217429_8" function="internal">
        <lane id=":10259217429_8_0" index="0" allow="pedestrian delivery bicycle" speed="3.65" length="4.67" shape="1920.56,862.83 1921.75,863.64 1922.15,864.44 1921.74,865.24 1920.53,866.03"/>
    </edge>
    <edge id=":10259217430_0" function="internal">
        <lane id=":10259217430_0_0" index="0" allow="pedestrian delivery bicycle" speed="3.65" length="4.67" shape="1926.85,894.12 1926.05,895.32 1925.25,895.72 1924.45,895.32 1923.65,894.12"/>
    </edge>
    <edge id=":10716018718_0" function="internal">
        <lane id=":10716018718_0_0" index="0" disallow="tram rail_urban rail rail_electric rail_fast ship container cable_car subway aircraft wheelchair scooter drone" speed="6.51" length="9.03" shape="1842.68,69.84 1840.23,70.18 1838.48,71.23 1837.42,72.98 1837.07,75.42"/>
    </edge>
    <edge id=":10716018718_1" function="internal">
        <lane id=":10716018718_1_0" index="0" disallow="tram rail_urban rail rail_electric rail_fast ship container cable_car subway aircraft wheelchair scooter drone" speed="13.89" length="14.40" shape="1842.68,69.84 1828.29,69.80"/>
    </edge>
    <edge id=":10716018718_2" function="internal">
        <lane id=":10716018718_2_0" index="0" disallow="tram rail_urban rail rail_electric rail_fast ship container cable_car subway aircraft wheelchair scooter drone" speed="3.65" length="1.44" shape="1842.68,69.84 1841.48,69.04"/>
    </edge>
    <edge id=":10716018718_6" function="internal">
        <lane id=":10716018718_6_0" index="0" disallow="tram rail_urban rail rail_electric rail_fast ship container cable_car subway aircraft wheelchair scooter drone" speed="3.65" length="3.23" shape="1841.48,69.04 1841.09,68.24 1841.49,67.44 1842.69,66.64"/>
    </edge>
    <edge id=":10716018718_3" function="internal">
        <lane id=":10716018718_3_0" index="0" disallow="tram rail_urban rail rail_electric rail_fast ship container cable_car subway aircraft wheelchair scooter drone" speed="13.89" length="14.40" shape="1828.30,66.60 1842.69,66.64"/>
    </edge>
    <edge id=":10716018718_4" function="internal">
        <lane id=":10716018718_4_0" index="0" disallow="tram rail_urban rail rail_electric rail_fast ship container cable_car subway aircraft wheelchair scooter drone" speed="7.32" length="2.51" shape="1828.30,66.60 1830.74,67.16"/>
    </edge>
    <edge id=":10716018718_5" function="internal">
        <lane id=":10716018718_5_0" index="0" disallow="tram rail_urban rail rail_electric rail_fast ship container cable_car subway aircraft wheelchair scooter drone" speed="3.65" length="1.44" shape="1828.30,66.60 1829.49,67.40"/>
    </edge>
    <edge id=":10716018718_7" function="internal">
        <lane id=":10716018718_7_0" index="0" disallow="tram rail_urban rail rail_electric rail_fast ship container cable_car subway aircraft wheelchair scooter drone" speed="7.32" length="9.21" shape="1830.74,67.16 1832.49,68.81 1833.53,71.56 1833.87,75.41"/>
    </edge>
    <edge id=":10716018718_8" function="internal">
        <lane id=":10716018718_8_0" index="0" disallow="tram rail_urban rail rail_electric rail_fast ship container cable_car subway aircraft wheelchair scooter drone" speed="3.65" length="3.23" shape="1829.49,67.40 1829.89,68.20 1829.49,69.00 1828.29,69.80"/>
    </edge>
    <edge id=":10941314153_0" function="internal">
        <lane id=":10941314153_0_0" index="0" allow="pedestrian delivery bicycle" speed="3.65" length="4.67" shape="722.60,679.38 722.27,680.78 721.65,681.43 720.77,681.33 719.60,680.48"/>
    </edge>
    <edge id=":10941314154_0" function="internal">
        <lane id=":10941314154_0_0" index="0" allow="pedestrian delivery bicycle" speed="5.56" length="7.11" shape="663.25,644.18 661.19,643.82 659.74,643.81 658.31,644.12 656.30,644.74"/>
    </edge>
    <edge id=":10941314154_1" function="internal">
        <lane id=":10941314154_1_0" index="0" allow="pedestrian delivery bicycle" speed="5.56" length="9.01" shape="663.25,644.18 661.21,643.44 659.58,642.14 658.35,640.29 657.54,637.89"/>
    </edge>
    <edge id=":10941314154_2" function="internal">
        <lane id=":10941314154_2_0" index="0" allow="pedestrian delivery bicycle" speed="3.65" length="4.67" shape="663.25,644.18 662.24,643.15 662.01,642.29 662.56,641.59 663.90,641.05"/>
    </edge>
    <edge id=":10941314154_3" function="internal">
        <lane id=":10941314154_3_0" index="0" allow="pedestrian delivery bicycle" speed="5.56" length="5.34" shape="660.66,637.18 661.15,638.68 661.85,639.82 662.77,640.61 663.90,641.05"/>
    </edge>
    <edge id=":10941314154_4" function="internal">
        <lane id=":10941314154_4_0" index="0" allow="pedestrian delivery bicycle" speed="5.56" length="9.79" shape="660.66,637.18 660.88,639.83 660.23,641.97 658.70,643.61 656.30,644.74"/>
    </edge>
    <edge id=":10941314154_5" function="internal">
        <lane id=":10941314154_5_0" index="0" allow="pedestrian delivery bicycle" speed="3.65" length="4.67" shape="660.66,637.18 660.15,638.53 659.46,639.10 658.59,638.88 657.54,637.89"/>
    </edge>
    <edge id=":10941314154_6" function="internal">
        <lane id=":10941314154_6_0" index="0" allow="pedestrian delivery bicycle" speed="5.13" length="4.91" shape="655.35,641.68 656.56,641.11 657.33,640.29 657.65,639.22 657.54,637.89"/>
    </edge>
    <edge id=":10941314154_7" function="internal">
        <lane id=":10941314154_7_0" index="0" allow="pedestrian delivery bicycle" speed="5.56" length="8.74" shape="655.35,641.68 657.83,640.92 659.59,640.56 661.37,640.60 663.90,641.05"/>
    </edge>
    <edge id=":10941314154_8" function="internal">
        <lane id=":10941314154_8_0" index="0" allow="pedestrian delivery bicycle" speed="3.65" length="4.67" shape="655.35,641.68 656.74,642.09 657.35,642.74 657.21,643.62 656.30,644.74"/>
    </edge>
    <edge id=":10941314156_0" function="internal">
        <lane id=":10941314156_0_0" index="0" allow="pedestrian delivery bicycle" speed="5.30" length="5.31" shape="613.26,627.54 612.60,626.15 611.71,625.26 610.60,624.88 609.26,624.99"/>
    </edge>
    <edge id=":10941314156_1" function="internal">
        <lane id=":10941314156_1_0" index="0" allow="pedestrian delivery bicycle" speed="5.56" length="10.53" shape="613.26,627.54 612.73,624.67 613.28,622.38 614.90,620.68 617.59,619.56"/>
    </edge>
    <edge id=":10941314156_2" function="internal">
        <lane id=":10941314156_2_0" index="0" allow="pedestrian delivery bicycle" speed="3.65" length="4.67" shape="613.26,627.54 613.64,626.14 614.27,625.51 615.15,625.63 616.29,626.52"/>
    </edge>
    <edge id=":10941314156_3" function="internal">
        <lane id=":10941314156_3_0" index="0" allow="pedestrian delivery bicycle" speed="4.96" length="5.09" shape="618.39,622.66 617.09,623.20 616.30,624.03 616.04,625.13 616.29,626.52"/>
    </edge>
    <edge id=":10941314156_4" function="internal">
        <lane id=":10941314156_4_0" index="0" allow="pedestrian delivery bicycle" speed="5.56" length="9.42" shape="618.39,622.66 609.26,624.99"/>
    </edge>
    <edge id=":10941314156_5" function="internal">
        <lane id=":10941314156_5_0" index="0" allow="pedestrian delivery bicycle" speed="3.65" length="4.67" shape="618.39,622.66 617.03,622.19 616.44,621.51 616.63,620.64 617.59,619.56"/>
    </edge>
    <edge id=":10941314156_6" function="internal">
        <lane id=":10941314156_6_0" index="0" allow="pedestrian delivery bicycle" speed="5.56" length="9.41" shape="608.47,621.89 617.59,619.56"/>
    </edge>
    <edge id=":10941314156_7" function="internal">
        <lane id=":10941314156_7_0" index="0" allow="pedestrian delivery bicycle" speed="5.56" length="10.19" shape="608.47,621.89 611.13,621.63 613.31,622.31 615.04,623.94 616.29,626.52"/>
    </edge>
    <edge id=":10941314156_8" function="internal">
        <lane id=":10941314156_8_0" index="0" allow="pedestrian delivery bicycle" speed="3.65" length="4.67" shape="608.47,621.89 609.83,622.37 610.42,623.05 610.23,623.92 609.26,624.99"/>
    </edge>
    <edge id=":10941314160_0" function="internal">
        <lane id=":10941314160_0_0" index="0" allow="pedestrian delivery bicycle" speed="3.65" length="4.67" shape="718.85,715.12 718.56,716.53 717.97,717.20 717.08,717.13 715.89,716.32"/>
    </edge>
    <edge id=":10941314161_0" function="internal">
        <lane id=":10941314161_0_0" index="0" allow="pedestrian delivery bicycle" speed="5.56" length="9.16" shape="709.41,700.21 705.77,691.80"/>
    </edge>
    <edge id=":10941314161_1" function="internal">
        <lane id=":10941314161_1_0" index="0" allow="pedestrian delivery bicycle" speed="5.56" length="10.04" shape="709.41,700.21 708.77,697.59 709.12,695.34 710.46,693.47 712.79,691.96"/>
    </edge>
    <edge id=":10941314161_2" function="internal">
        <lane id=":10941314161_2_0" index="0" allow="pedestrian delivery bicycle" speed="3.65" length="4.67" shape="709.41,700.21 709.70,698.80 710.29,698.13 711.18,698.20 712.37,699.01"/>
    </edge>
    <edge id=":10941314161_3" function="internal">
        <lane id=":10941314161_3_0" index="0" allow="pedestrian delivery bicycle" speed="5.17" length="5.09" shape="714.15,694.86 712.95,695.63 712.26,696.58 712.06,697.70 712.37,699.01"/>
    </edge>
    <edge id=":10941314161_4" function="internal">
        <lane id=":10941314161_4_0" index="0" allow="pedestrian delivery bicycle" speed="5.56" length="10.18" shape="714.15,694.86 711.48,695.67 709.19,695.44 707.29,694.15 705.77,691.80"/>
    </edge>
    <edge id=":10941314161_5" function="internal">
        <lane id=":10941314161_5_0" index="0" allow="pedestrian delivery bicycle" speed="3.65" length="4.67" shape="714.15,694.86 712.72,694.64 712.02,694.09 712.04,693.19 712.79,691.96"/>
    </edge>
    <edge id=":10941314161_6" function="internal">
        <lane id=":10941314161_6_0" index="0" allow="pedestrian delivery bicycle" speed="5.04" length="5.01" shape="708.67,690.46 709.42,691.61 710.35,692.24 711.48,692.36 712.79,691.96"/>
    </edge>
    <edge id=":10941314161_7" function="internal">
        <lane id=":10941314161_7_0" index="0" allow="pedestrian delivery bicycle" speed="5.56" length="9.32" shape="708.67,690.46 712.37,699.01"/>
    </edge>
    <edge id=":10941314161_8" function="internal">
        <lane id=":10941314161_8_0" index="0" allow="pedestrian delivery bicycle" speed="3.65" length="4.67" shape="708.67,690.46 708.45,691.88 707.89,692.58 707.00,692.56 705.77,691.80"/>
    </edge>
    <edge id=":10941362703_0" function="internal">
        <lane id=":10941362703_0_0" index="0" allow="pedestrian delivery bicycle" speed="5.49" length="5.54" shape="607.39,583.79 606.53,582.37 605.53,581.49 604.37,581.13 603.06,581.30"/>
    </edge>
    <edge id=":10941362703_1" function="internal">
        <lane id=":10941362703_1_0" index="0" allow="pedestrian delivery bicycle" speed="5.56" length="10.80" shape="607.39,583.79 606.53,580.91 606.86,578.54 608.38,576.70 611.09,575.39"/>
    </edge>
    <edge id=":10941362703_2" function="internal">
        <lane id=":10941362703_2_0" index="0" allow="pedestrian delivery bicycle" speed="3.65" length="4.67" shape="607.39,583.79 607.61,582.37 608.17,581.67 609.06,581.70 610.29,582.45"/>
    </edge>
    <edge id=":10941362703_3" function="internal">
        <lane id=":10941362703_3_0" index="0" allow="pedestrian delivery bicycle" speed="4.92" length="5.16" shape="612.06,578.44 610.77,579.07 610.04,579.94 609.88,581.07 610.29,582.45"/>
    </edge>
    <edge id=":10941362703_4" function="internal">
        <lane id=":10941362703_4_0" index="0" allow="pedestrian delivery bicycle" speed="5.56" length="9.45" shape="612.06,578.44 603.06,581.30"/>
    </edge>
    <edge id=":10941362703_5" function="internal">
        <lane id=":10941362703_5_0" index="0" allow="pedestrian delivery bicycle" speed="3.65" length="4.67" shape="612.06,578.44 610.67,578.04 610.05,577.40 610.19,576.52 611.09,575.39"/>
    </edge>
    <edge id=":10941362703_6" function="internal">
        <lane id=":10941362703_6_0" index="0" allow="pedestrian delivery bicycle" speed="5.56" length="9.45" shape="602.09,578.26 611.09,575.39"/>
    </edge>
    <edge id=":10941362703_7" function="internal">
        <lane id=":10941362703_7_0" index="0" allow="pedestrian delivery bicycle" speed="5.56" length="10.24" shape="602.09,578.26 604.65,577.87 606.87,578.44 608.75,579.96 610.29,582.45"/>
    </edge>
    <edge id=":10941362703_8" function="internal">
        <lane id=":10941362703_8_0" index="0" allow="pedestrian delivery bicycle" speed="3.65" length="4.67" shape="602.09,578.26 603.47,578.65 604.10,579.30 603.96,580.18 603.06,581.30"/>
    </edge>
    <edge id=":11329081584_0" function="internal">
        <lane id=":11329081584_0_0" index="0" allow="pedestrian delivery bicycle" speed="5.56" length="9.30" shape="586.84,406.93 577.99,409.79"/>
    </edge>
    <edge id=":11329081584_1" function="internal">
        <lane id=":11329081584_1_0" index="0" allow="pedestrian delivery bicycle" speed="5.56" length="10.20" shape="586.84,406.93 584.08,407.38 581.84,406.83 580.13,405.29 578.95,402.75"/>
    </edge>
    <edge id=":11329081584_2" function="internal">
        <lane id=":11329081584_2_0" index="0" allow="pedestrian delivery bicycle" speed="3.65" length="4.67" shape="586.84,406.93 585.46,406.52 584.84,405.88 584.98,404.99 585.89,403.87"/>
    </edge>
    <edge id=":11329081584_3" function="internal">
        <lane id=":11329081584_3_0" index="0" allow="pedestrian delivery bicycle" speed="5.03" length="5.01" shape="582.01,401.82 582.59,403.07 583.43,403.82 584.53,404.09 585.89,403.87"/>
    </edge>
    <edge id=":11329081584_4" function="internal">
        <lane id=":11329081584_4_0" index="0" allow="pedestrian delivery bicycle" speed="5.56" length="10.11" shape="582.01,401.82 582.44,404.57 581.92,406.82 580.43,408.56 577.99,409.79"/>
    </edge>
    <edge id=":11329081584_5" function="internal">
        <lane id=":11329081584_5_0" index="0" allow="pedestrian delivery bicycle" speed="3.65" length="4.67" shape="582.01,401.82 581.59,403.20 580.94,403.82 580.06,403.66 578.95,402.75"/>
    </edge>
    <edge id=":11329081584_6" function="internal">
        <lane id=":11329081584_6_0" index="0" allow="pedestrian delivery bicycle" speed="5.12" length="5.06" shape="576.97,406.76 578.18,406.14 578.91,405.27 579.17,404.14 578.95,402.75"/>
    </edge>
    <edge id=":11329081584_7" function="internal">
        <lane id=":11329081584_7_0" index="0" allow="pedestrian delivery bicycle" speed="5.56" length="9.37" shape="576.97,406.76 585.89,403.87"/>
    </edge>
    <edge id=":11329081584_8" function="internal">
        <lane id=":11329081584_8_0" index="0" allow="pedestrian delivery bicycle" speed="3.65" length="4.67" shape="576.97,406.76 578.37,407.13 579.00,407.77 578.87,408.65 577.99,409.79"/>
    </edge>
    <edge id=":11329081585_0" function="internal">
        <lane id=":11329081585_0_0" index="0" allow="pedestrian delivery bicycle" speed="5.56" length="9.46" shape="666.84,367.10 666.06,376.53"/>
    </edge>
    <edge id=":11329081585_1" function="internal">
        <lane id=":11329081585_1_0" index="0" allow="pedestrian delivery bicycle" speed="5.56" length="10.25" shape="666.84,367.10 666.22,369.60 664.85,371.44 662.71,372.61 659.82,373.11"/>
    </edge>
    <edge id=":11329081585_2" function="internal">
        <lane id=":11329081585_2_0" index="0" allow="pedestrian delivery bicycle" speed="3.65" length="4.67" shape="666.84,367.10 665.94,368.23 665.11,368.56 664.35,368.10 663.65,366.83"/>
    </edge>
    <edge id=":11329081585_3" function="internal">
        <lane id=":11329081585_3_0" index="0" allow="pedestrian delivery bicycle" speed="5.52" length="5.58" shape="659.65,369.92 661.31,369.65 662.53,369.05 663.31,368.11 663.65,366.83"/>
    </edge>
    <edge id=":11329081585_4" function="internal">
        <lane id=":11329081585_4_0" index="0" allow="pedestrian delivery bicycle" speed="5.56" length="10.85" shape="659.65,369.92 662.67,370.20 664.75,371.39 665.87,373.50 666.06,376.53"/>
    </edge>
    <edge id=":11329081585_5" function="internal">
        <lane id=":11329081585_5_0" index="0" allow="pedestrian delivery bicycle" speed="3.65" length="4.67" shape="659.65,369.92 660.89,370.65 661.33,371.43 660.97,372.25 659.82,373.11"/>
    </edge>
    <edge id=":11329081585_6" function="internal">
        <lane id=":11329081585_6_0" index="0" allow="pedestrian delivery bicycle" speed="4.91" length="5.17" shape="662.87,376.26 662.78,374.82 662.24,373.81 661.26,373.25 659.82,373.11"/>
    </edge>
    <edge id=":11329081585_7" function="internal">
        <lane id=":11329081585_7_0" index="0" allow="pedestrian delivery bicycle" speed="5.56" length="9.46" shape="662.87,376.26 663.65,366.83"/>
    </edge>
    <edge id=":11329081585_8" function="internal">
        <lane id=":11329081585_8_0" index="0" allow="pedestrian delivery bicycle" speed="3.65" length="4.67" shape="662.87,376.26 663.76,375.13 664.59,374.80 665.36,375.26 666.06,376.53"/>
    </edge>
    <edge id=":11329081586_0" function="internal">
        <lane id=":11329081586_0_0" index="0" allow="pedestrian delivery bicycle" speed="5.56" length="9.47" shape="668.21,350.29 667.44,359.73"/>
    </edge>
    <edge id=":11329081586_1" function="internal">
        <lane id=":11329081586_1_0" index="0" allow="pedestrian delivery bicycle" speed="5.56" length="10.25" shape="668.21,350.29 667.60,352.80 666.23,354.65 664.10,355.82 661.20,356.32"/>
    </edge>
    <edge id=":11329081586_2" function="internal">
        <lane id=":11329081586_2_0" index="0" allow="pedestrian delivery bicycle" speed="3.65" length="4.67" shape="668.21,350.29 667.32,351.43 666.49,351.76 665.72,351.30 665.02,350.04"/>
    </edge>
    <edge id=":11329081586_3" function="internal">
        <lane id=":11329081586_3_0" index="0" allow="pedestrian delivery bicycle" speed="5.51" length="5.57" shape="661.04,353.12 662.69,352.86 663.91,352.26 664.68,351.32 665.02,350.04"/>
    </edge>
    <edge id=":11329081586_4" function="internal">
        <lane id=":11329081586_4_0" index="0" allow="pedestrian delivery bicycle" speed="5.56" length="10.84" shape="661.04,353.12 664.06,353.40 666.13,354.60 667.26,356.71 667.44,359.73"/>
    </edge>
    <edge id=":11329081586_5" function="internal">
        <lane id=":11329081586_5_0" index="0" allow="pedestrian delivery bicycle" speed="3.65" length="4.67" shape="661.04,353.12 662.28,353.86 662.72,354.64 662.36,355.46 661.20,356.32"/>
    </edge>
    <edge id=":11329081586_6" function="internal">
        <lane id=":11329081586_6_0" index="0" allow="pedestrian delivery bicycle" speed="4.91" length="5.17" shape="664.25,359.47 664.16,358.03 663.63,357.02 662.64,356.45 661.20,356.32"/>
    </edge>
    <edge id=":11329081586_7" function="internal">
        <lane id=":11329081586_7_0" index="0" allow="pedestrian delivery bicycle" speed="5.56" length="9.46" shape="664.25,359.47 665.02,350.04"/>
    </edge>
    <edge id=":11329081586_8" function="internal">
        <lane id=":11329081586_8_0" index="0" allow="pedestrian delivery bicycle" speed="3.65" length="4.67" shape="664.25,359.47 665.15,358.34 665.98,358.00 666.74,358.47 667.44,359.73"/>
    </edge>
    <edge id=":11329081587_0" function="internal">
        <lane id=":11329081587_0_0" index="0" allow="pedestrian delivery bicycle" speed="5.56" length="9.46" shape="672.91,295.17 672.20,304.60"/>
    </edge>
    <edge id=":11329081587_1" function="internal">
        <lane id=":11329081587_1_0" index="0" allow="pedestrian delivery bicycle" speed="5.56" length="10.25" shape="672.91,295.17 672.31,297.68 670.95,299.53 668.82,300.71 665.93,301.25"/>
    </edge>
    <edge id=":11329081587_2" function="internal">
        <lane id=":11329081587_2_0" index="0" allow="pedestrian delivery bicycle" speed="3.65" length="4.67" shape="672.91,295.17 672.02,296.31 671.19,296.65 670.43,296.19 669.72,294.93"/>
    </edge>
    <edge id=":11329081587_3" function="internal">
        <lane id=":11329081587_3_0" index="0" allow="pedestrian delivery bicycle" speed="5.54" length="5.59" shape="665.73,298.05 667.39,297.77 668.61,297.16 669.39,296.21 669.72,294.93"/>
    </edge>
    <edge id=":11329081587_4" function="internal">