<?xml version="1.0" encoding="UTF-8"?>

<!-- generated on 2025-05-02 12:19:37 by Eclipse SUMO netedit Version 1.22.0
-->

<routes xmlns:xsi="http://www.w3.org/2001/XMLSchema-instance" xsi:noNamespaceSchemaLocation="http://sumo.dlr.de/xsd/routes_file.xsd">
    <!-- VTypes -->
    <vType id="bus" vClass="bus"/>
    <!-- Vehicles, persons and containers (sorted by depart) -->
    <trip id="bus1" type="bus" depart="0.00" from="-13387358#4" to="334631554#0" via="-13387358#3 -13387358#2 -13387358#1 406241587#0 406241587#1 406241587#2 406241587#4 406241587#5 406241587#8 406241598 406242649#0 406242649#2 406242649#5 406242644#0 259846930#0 259846930#2 259846930#3 1008405679 406233345#0 406233345#1 1065518636#0 406233346#0 406233346#1 334631993#1 406233344 640278675 192503244#0 192503244#2 192503244#3 405546351 405546352 405546350#0 405546350#1 405546357#0 405546357#1 405546357#2 405546357#3 405546357#4 405546357#5 405546357#6 525615994 525615993 405546353 405546349 405546354 405546355 405546348 405546356#0 405546356#1 405546356#2 405546356#3"/>
    <trip id="bus2" type="bus" depart="0.00" from="405545584" to="13387358#3" via="1014617514#0 1014617514#1 1014617514#2 405545580#0 405545580#1 604060292 604060288 405545578 1264201012#0 1264201012#1 604060286#0 604060286#1 405545581#0 405545581#1 405545581#2 405545581#3 406234624#0 630143605 406233348 406233343 406233349#0 406242648#0 406242636 406242635#0 406242635#2 406242635#5 406242635#7 406242635#8 13387358#0 13387358#1 13387358#2"/>
    <flow id="car1" begin="0.00" from="-24672357#1" to="406232647#1" via="-24672357#0 405545578 1264201012#0 1264201012#1 604060286#0 604060286#1 405545581#0 405545581#1 405545581#2 405545581#3 406234624#0 630143605 406233348 406233343 406233349#0 406232664#0" end="3600.00" vehsPerHour="1800"/>
    <flow id="car2" begin="0.00" from="755844272" to="-202756206#1" via="755844260#0 259846930#0 259846930#2 259846930#3 1008405679 406233345#0 406233345#1 1065518636#0 406233346#0 406233346#1 334631993#1 406233344 192503240 -202756206#2" end="3600.00" vehsPerHour="1800"/>
    <flow id="car3" begin="0.00" from="13304517#1" to="13372985#3" via="406242635#0 13372985#1 13372985#2" end="3600.00" vehsPerHour="1800"/>
    <flow id="car4" begin="0.00" from="-13287422#1" to="13460918#1" via="406242635#7" end="3600.00" vehsPerHour="1800"/>
</routes>
