<?xml version="1.0" encoding="UTF-8"?>

<!-- generated on 2025-04-29 11:02:09.927608 by osmWebWizard.py UNKNOWN
<configuration>
    <net-file value="/Users/nedasarbalavandeymir/Sumo/2025-04-29-11-01-31/osm.net.xml.gz"/>
    <output-trip-file value="/Users/nedasarbalavandeymir/Sumo/2025-04-29-11-01-31/osm.bus.trips.xml"/>
    <route-file value="/Users/nedasarbalavandeymir/Sumo/2025-04-29-11-01-31/osm.bus.rou.xml"/>
    <prefix value="bus"/>
    <trip-attributes value="departLane=&quot;best&quot;"/>
    <fringe-start-attributes value="departSpeed=&quot;max&quot;"/>
    <vehicle-class value="bus"/>
    <fringe-factor value="5"/>
    <vclass value="bus"/>
    <via-edge-types value="highway.motorway,highway.motorway_link,highway.trunk_link,highway.primary_link,highway.secondary_link,highway.tertiary_link"/>
    <min-distance value="600.0"/>
    <min-distance.fringe value="10.0"/>
    <remove-loops value="True"/>
    <validate value="True"/>
    <insertion-density value="4.0"/>
</configuration>
-->

<!-- generated on 2025-04-29 11:02:09 by Eclipse SUMO duarouter Version 1.22.0
<duarouterConfiguration xmlns:xsi="http://www.w3.org/2001/XMLSchema-instance" xsi:noNamespaceSchemaLocation="http://sumo.dlr.de/xsd/duarouterConfiguration.xsd">

    <input>
        <net-file value="/Users/nedasarbalavandeymir/Sumo/2025-04-29-11-01-31/osm.net.xml.gz"/>
        <route-files value="/Users/nedasarbalavandeymir/Sumo/2025-04-29-11-01-31/osm.bus.trips.xml"/>
    </input>

    <output>
        <output-file value="/Users/nedasarbalavandeymir/Sumo/2025-04-29-11-01-31/osm.bus.trips.xml.tmp"/>
        <alternatives-output value="NUL"/>
        <write-trips value="true"/>
    </output>

    <processing>
        <remove-loops value="true"/>
    </processing>

    <time>
        <begin value="0.0"/>
        <end value="3600.0"/>
    </time>

    <report>
        <no-warnings value="true"/>
        <ignore-errors value="true"/>
        <no-step-log value="true"/>
    </report>

</duarouterConfiguration>
-->

<routes xmlns:xsi="http://www.w3.org/2001/XMLSchema-instance" xsi:noNamespaceSchemaLocation="http://sumo.dlr.de/xsd/routes_file.xsd">
    <vType id="bus_bus" vClass="bus"/>
    <trip id="bus0" type="bus_bus" depart="0.00" departLane="best" from="405546357#1" to="13372985#1"/>
    <trip id="bus2" type="bus_bus" depart="100.08" departLane="best" from="406241587#1" to="405546357#2"/>
    <trip id="bus4" type="bus_bus" depart="200.16" departLane="best" departSpeed="max" from="202756206#0" to="13372985#2"/>
    <trip id="bus5" type="bus_bus" depart="250.20" departLane="best" departSpeed="max" from="-715773496" to="24672459#0"/>
    <trip id="bus7" type="bus_bus" depart="350.28" departLane="best" departSpeed="max" from="-715773496" to="405546348"/>
    <trip id="bus8" type="bus_bus" depart="400.32" departLane="best" departSpeed="max" from="406242637#0" to="13287422#1"/>
    <trip id="bus9" type="bus_bus" depart="450.36" departLane="best" departSpeed="max" from="406242637#0" to="405546357#6"/>
    <trip id="bus10" type="bus_bus" depart="500.41" departLane="best" from="1065518636#0" to="13407681"/>
    <trip id="bus11" type="bus_bus" depart="550.45" departLane="best" from="406242646#0" to="405546350#0"/>
    <trip id="bus12" type="bus_bus" depart="600.49" departLane="best" departSpeed="max" from="405545584" to="715773496"/>
    <trip id="bus13" type="bus_bus" depart="650.53" departLane="best" departSpeed="max" from="406242637#0" to="405546352"/>
    <trip id="bus14" type="bus_bus" depart="700.57" departLane="best" from="630143603" to="13387358#0"/>
    <trip id="bus16" type="bus_bus" depart="800.65" departLane="best" departSpeed="max" from="755844272" to="405546356#0"/>
    <trip id="bus17" type="bus_bus" depart="850.69" departLane="best" from="-13387358#1" to="1264201012#1"/>
    <trip id="bus19" type="bus_bus" depart="950.77" departLane="best" from="630143603" to="13387358#1"/>
    <trip id="bus21" type="bus_bus" depart="1050.85" departLane="best" from="604060292" to="192503244#3"/>
    <trip id="bus23" type="bus_bus" depart="1150.93" departLane="best" from="405546351" to="406242635#0"/>
    <trip id="bus25" type="bus_bus" depart="1251.01" departLane="best" departSpeed="max" from="755844272" to="24672459#0"/>
    <trip id="bus26" type="bus_bus" depart="1301.05" departLane="best" from="-13412607" to="13387358#0"/>
    <trip id="bus27" type="bus_bus" depart="1351.09" departLane="best" from="13435460#2" to="405546354"/>
    <trip id="bus29" type="bus_bus" depart="1451.17" departLane="best" from="259846930#3" to="334631554#0"/>
    <trip id="bus30" type="bus_bus" depart="1501.22" departLane="best" from="-24672357#0" to="406233346#0"/>
    <trip id="bus31" type="bus_bus" depart="1551.26" departLane="best" from="405545580#0" to="243612604"/>
    <trip id="bus32" type="bus_bus" depart="1601.30" departLane="best" from="604060292" to="406242645#0"/>
    <trip id="bus33" type="bus_bus" depart="1651.34" departLane="best" from="-13372985#2" to="405546356#0"/>
    <trip id="bus35" type="bus_bus" depart="1751.42" departLane="best" from="406241587#8" to="334631554#0"/>
    <trip id="bus36" type="bus_bus" depart="1801.46" departLane="best" from="-1008405678" to="13387358#3"/>
    <trip id="bus37" type="bus_bus" depart="1851.50" departLane="best" from="13304517#1" to="604060286#1"/>
    <trip id="bus38" type="bus_bus" depart="1901.54" departLane="best" from="630143603" to="406242635#2"/>
    <trip id="bus41" type="bus_bus" depart="2051.66" departLane="best" from="259846930#3" to="405545578"/>
    <trip id="bus42" type="bus_bus" depart="2101.70" departLane="best" from="1264201012#0" to="406242645#0"/>
    <trip id="bus44" type="bus_bus" depart="2201.78" departLane="best" departSpeed="max" from="405545584" to="406232664#0"/>
    <trip id="bus45" type="bus_bus" depart="2251.82" departLane="best" departSpeed="max" from="755844272" to="405546356#2"/>
    <trip id="bus46" type="bus_bus" depart="2301.86" departLane="best" from="202756206#1" to="24672459#0"/>
    <trip id="bus48" type="bus_bus" depart="2401.94" departLane="best" from="-13412607" to="405546348"/>
    <trip id="bus50" type="bus_bus" depart="2502.03" departLane="best" from="1014617514#0" to="405546357#1"/>
    <trip id="bus52" type="bus_bus" depart="2602.11" departLane="best" departSpeed="max" from="406242637#0" to="-24672357#1"/>
    <trip id="bus53" type="bus_bus" depart="2652.15" departLane="best" from="406241587#0" to="405546357#2"/>
    <trip id="bus54" type="bus_bus" depart="2702.19" departLane="best" departSpeed="max" from="755844272" to="-13435460#0"/>
    <trip id="bus55" type="bus_bus" depart="2752.23" departLane="best" from="192503244#3" to="13407681"/>
    <trip id="bus57" type="bus_bus" depart="2852.31" departLane="best" departSpeed="max" from="202756206#0" to="-13304517#0"/>
    <trip id="bus58" type="bus_bus" depart="2902.35" departLane="best" from="1014617514#2" to="604060286#0"/>
    <trip id="bus59" type="bus_bus" depart="2952.39" departLane="best" departSpeed="max" from="405545584" to="13387358#0"/>
    <trip id="bus60" type="bus_bus" depart="3002.43" departLane="best" from="755844260#0" to="604060286#0"/>
    <trip id="bus61" type="bus_bus" depart="3052.47" departLane="best" from="406242646#0" to="-202756206#1"/>
    <trip id="bus62" type="bus_bus" depart="3102.51" departLane="best" from="192503244#2" to="13387358#0"/>
    <trip id="bus63" type="bus_bus" depart="3152.55" departLane="best" from="192503236#0" to="715773496"/>
    <trip id="bus64" type="bus_bus" depart="3202.59" departLane="best" from="-24672357#0" to="13435460#8"/>
    <trip id="bus65" type="bus_bus" depart="3252.63" departLane="best" departSpeed="max" from="405545584" to="406232647#1"/>
    <trip id="bus66" type="bus_bus" depart="3302.67" departLane="best" departSpeed="max" from="405545584" to="406233345#0"/>
    <trip id="bus67" type="bus_bus" depart="3352.71" departLane="best" from="-13387358#4" to="405545581#3"/>
    <trip id="bus68" type="bus_bus" depart="3402.75" departLane="best" from="405545580#1" to="406242635#8"/>
    <trip id="bus69" type="bus_bus" depart="3452.79" departLane="best" from="-13460918#1" to="640278675"/>
    <trip id="bus71" type="bus_bus" depart="3552.88" departLane="best" from="1014617514#0" to="13435460#8"/>
</routes>
