<?xml version="1.0" encoding="UTF-8"?>

<!-- generated on 2025-06-25 00:19:44 by Eclipse SUMO netconvert Version v1_22_0+0728-b12b56f69e2
<netconvertConfiguration xmlns:xsi="http://www.w3.org/2001/XMLSchema-instance" xsi:noNamespaceSchemaLocation="http://sumo.dlr.de/xsd/netconvertConfiguration.xsd">

    <input>
        <sumo-net-file value="resources/gtfs/numerical.net.xml"/>
    </input>

    <output>
        <output-file value="resources/gtfs/bus.net.xml"/>
        <dlr-navteq.precision value="0"/>
        <output.street-names value="true"/>
        <output.original-names value="true"/>
    </output>

    <processing>
        <numerical-ids value="true"/>
        <geometry.min-radius.fix.railways value="false"/>
        <geometry.avoid-overlap value="false"/>
        <geometry.max-grade.fix value="false"/>
        <offset.disable-normalization value="true"/>
        <lefthand value="0"/>
    </processing>

    <edge_removal>
        <keep-edges.by-vclass value="bus"/>
    </edge_removal>

    <junctions>
        <no-internal-links value="true"/>
        <no-turnarounds value="true"/>
        <junctions.corner-detail value="0"/>
        <junctions.limit-turn-speed value="5.50"/>
        <rectangular-lane-cut value="0"/>
    </junctions>

    <pedestrian>
        <walkingareas value="0"/>
    </pedestrian>

    <report>
        <aggregate-warnings value="1"/>
    </report>

</netconvertConfiguration>
-->

<net version="1.20" limitTurnSpeed="5.50" avoidOverlap="0" xmlns:xsi="http://www.w3.org/2001/XMLSchema-instance" xsi:noNamespaceSchemaLocation="http://sumo.dlr.de/xsd/net_file.xsd">

    <location netOffset="13143657.58,-4046195.90" convBoundary="0.00,0.00,6111.89,1808.51" origBoundary="-118.071485,34.129440,-118.016581,34.142894" projParameter="+proj=merc +a=6378137 +b=6378137 +lat_ts=0.0 +lon_0=0.0 +x_0=0.0 +y_0=0 +k=1.0 +units=m +nadgrids=@null +wktext +no_defs"/>

    <type id="highway.motorway" priority="14" numLanes="2" speed="39.44" allow="private emergency authority army vip passenger hov taxi bus coach delivery truck trailer motorcycle evehicle custom1 custom2" oneway="1"/>
    <type id="highway.motorway_link" priority="9" numLanes="1" speed="22.22" allow="private emergency authority army vip passenger hov taxi bus coach delivery truck trailer motorcycle evehicle custom1 custom2" oneway="1"/>
    <type id="highway.primary" priority="12" numLanes="2" speed="27.78" disallow="tram rail_urban rail rail_electric rail_fast ship container cable_car subway aircraft wheelchair scooter drone" oneway="0"/>
    <type id="highway.primary_link" priority="7" numLanes="1" speed="22.22" disallow="tram rail_urban rail rail_electric rail_fast ship container cable_car subway aircraft wheelchair scooter drone" oneway="0"/>
    <type id="highway.residential" priority="3" numLanes="1" speed="13.89" disallow="tram rail_urban rail rail_electric rail_fast ship container cable_car subway aircraft wheelchair scooter drone" oneway="0"/>
    <type id="highway.secondary" priority="11" numLanes="1" speed="27.78" disallow="tram rail_urban rail rail_electric rail_fast ship container cable_car subway aircraft wheelchair scooter drone" oneway="0"/>
    <type id="highway.secondary_link" priority="6" numLanes="1" speed="22.22" disallow="tram rail_urban rail rail_electric rail_fast ship container cable_car subway aircraft wheelchair scooter drone" oneway="0"/>
    <type id="highway.service" priority="1" numLanes="1" speed="5.56" allow="pedestrian delivery bicycle" oneway="0"/>
    <type id="highway.tertiary" priority="10" numLanes="1" speed="22.22" disallow="tram rail_urban rail rail_electric rail_fast ship container cable_car subway aircraft wheelchair scooter drone" oneway="0"/>
    <type id="highway.tertiary_link" priority="5" numLanes="1" speed="22.22" disallow="tram rail_urban rail rail_electric rail_fast ship container cable_car subway aircraft wheelchair scooter drone" oneway="0"/>

    <edge id="-1036761436" from="123430118" to="12833145024" name="South Michillinda Avenue" priority="11" type="highway.secondary" shape="432.99,1356.04 432.67,1385.98">
        <lane id="-1036761436_0" index="0" disallow="tram rail_urban rail rail_electric rail_fast ship container cable_car subway aircraft wheelchair scooter drone" speed="27.78" length="33.32" shape="434.51,1363.25 434.27,1386.00"/>
    </edge>
    <edge id="-105057012" from="1211029277" to="12833144989" name="Michigan Boulevard" priority="3" type="highway.residential" shape="59.20,1261.34 60.31,1081.37">
        <lane id="-105057012_0" index="0" disallow="tram rail_urban rail rail_electric rail_fast ship container cable_car subway aircraft wheelchair scooter drone" speed="13.89" length="186.88" shape="57.60,1261.33 58.71,1081.36"/>
    </edge>
    <edge id="-105057047" from="1211029480" to="1211029479" priority="3" type="highway.residential">
        <lane id="-105057047_0" index="0" disallow="tram rail_urban rail rail_electric rail_fast ship container cable_car subway aircraft wheelchair scooter drone" speed="13.89" length="18.04" shape="250.39,807.70 261.19,805.31"/>
    </edge>
    <edge id="-105057067" from="1211029525" to="1211029524" priority="3" type="highway.residential">
        <lane id="-105057067_0" index="0" disallow="tram rail_urban rail rail_electric rail_fast ship container cable_car subway aircraft wheelchair scooter drone" speed="13.89" length="16.85" shape="248.19,1262.45 258.66,1262.26"/>
    </edge>
    <edge id="-105057931" from="1211033750" to="1211029633" priority="3" type="highway.residential">
        <lane id="-105057931_0" index="0" disallow="tram rail_urban rail rail_electric rail_fast ship container cable_car subway aircraft wheelchair scooter drone" speed="13.89" length="17.60" shape="264.74,351.19 254.20,350.49"/>
    </edge>
    <edge id="-105059339" from="1211029942" to="1211029333" priority="3" type="highway.residential">
        <lane id="-105059339_0" index="0" disallow="tram rail_urban rail rail_electric rail_fast ship container cable_car subway aircraft wheelchair scooter drone" speed="13.89" length="16.32" shape="14.39,367.05 22.82,361.01"/>
    </edge>
    <edge id="-1090736691" from="343596889" to="6981756798" name="Campus Drive" priority="11" type="highway.secondary" shape="3382.25,171.46 3422.24,172.27 3761.61,177.03 3834.42,178.55">
        <lane id="-1090736691_0" index="0" disallow="tram rail_urban rail rail_electric rail_fast ship container cable_car subway aircraft wheelchair scooter drone" speed="27.78" length="452.23" shape="3392.94,166.88 3422.32,167.47 3761.69,172.23 3834.37,173.75"/>
        <lane id="-1090736691_1" index="1" disallow="tram rail_urban rail rail_electric rail_fast ship container cable_car subway aircraft wheelchair scooter drone" speed="27.78" length="452.23" shape="3392.88,170.07 3422.27,170.67 3761.64,175.43 3834.30,176.95"/>
    </edge>
    <edge id="-1194285986" from="122804862" to="11085706715" name="East Santa Clara Street" priority="10" type="highway.tertiary" shape="4796.67,1728.13 4799.97,1728.12 4814.95,1728.76 4827.38,1729.17 4865.96,1729.92">
        <lane id="-1194285986_0" index="0" disallow="tram rail_urban rail rail_electric rail_fast ship container cable_car subway aircraft wheelchair scooter drone" speed="15.65" length="69.32" shape="4804.11,1723.49 4815.13,1723.96 4827.51,1724.37 4862.05,1725.04"/>
        <lane id="-1194285986_1" index="1" disallow="tram rail_urban rail rail_electric rail_fast ship container cable_car subway aircraft wheelchair scooter drone" speed="15.65" length="69.32" shape="4804.11,1726.70 4815.01,1727.16 4827.42,1727.57 4861.99,1728.24"/>
    </edge>
    <edge id="-1224447124" from="2142199333" to="2142199329" priority="3" type="highway.residential">
        <lane id="-1224447124_0" index="0" disallow="tram rail_urban rail rail_electric rail_fast ship container cable_car subway aircraft wheelchair scooter drone" speed="13.89" length="32.57" shape="5169.28,1365.25 5151.23,1364.73"/>
    </edge>
    <edge id="-1264201015" from="11745779135" to="123112452" name="South 1st Avenue" priority="10" type="highway.tertiary" shape="4810.86,809.24 4810.57,831.18 4810.38,839.70">
        <lane id="-1264201015_0" index="0" disallow="tram rail_urban rail rail_electric rail_fast ship container cable_car subway aircraft wheelchair scooter drone" speed="22.22" length="30.46" shape="4815.61,813.30 4815.37,831.26 4815.34,832.55"/>
        <lane id="-1264201015_1" index="1" disallow="tram rail_urban rail rail_electric rail_fast ship container cable_car subway aircraft wheelchair scooter drone" speed="22.22" length="30.46" shape="4812.41,813.26 4812.17,831.21 4812.14,832.48"/>
    </edge>
    <edge id="-1264201016" from="123112452" to="11745779140" name="South 1st Avenue" priority="10" type="highway.tertiary" shape="4810.38,839.70 4810.28,849.98 4810.03,876.93">
        <lane id="-1264201016_0" index="0" disallow="tram rail_urban rail rail_electric rail_fast ship container cable_car subway aircraft wheelchair scooter drone" speed="22.22" length="37.23" shape="4815.11,846.97 4815.08,850.03 4814.87,872.97"/>
        <lane id="-1264201016_1" index="1" disallow="tram rail_urban rail rail_electric rail_fast ship container cable_car subway aircraft wheelchair scooter drone" speed="22.22" length="37.23" shape="4811.91,846.94 4811.88,850.00 4811.67,872.94"/>
    </edge>
    <edge id="-1264201017" from="11745779140" to="939788182" name="South 1st Avenue" priority="10" type="highway.tertiary">
        <lane id="-1264201017_0" index="0" disallow="tram rail_urban rail rail_electric rail_fast ship container cable_car subway aircraft wheelchair scooter drone" speed="22.22" length="35.78" shape="4811.55,880.96 4810.92,912.59"/>
    </edge>
    <edge id="-1300185996" from="12043145975" to="122584035" name="Hugo Reid Drive" priority="3" type="highway.residential" shape="456.14,1103.95 489.34,1104.22 524.04,1104.93">
        <lane id="-1300185996_0" index="0" disallow="tram rail_urban rail rail_electric rail_fast ship container cable_car subway aircraft wheelchair scooter drone" speed="13.89" length="67.91" shape="457.26,1102.36 489.36,1102.62 516.70,1103.18"/>
    </edge>
    <edge id="-13281118" from="1211000511" to="122577798" name="De Anza Place" priority="3" type="highway.residential" shape="611.16,1414.44 610.81,1358.74 660.20,1353.05 756.94,1350.97">
        <lane id="-13281118_0" index="0" disallow="tram rail_urban rail rail_electric rail_fast ship container cable_car subway aircraft wheelchair scooter drone" speed="13.89" length="202.18" shape="609.56,1414.45 609.20,1357.31 660.09,1351.45 749.67,1349.53"/>
    </edge>
    <edge id="-13281272" from="122578903" to="122578897" name="Cabrillo Road" priority="3" type="highway.residential" shape="1035.23,1170.92 1027.46,1296.03 1023.84,1334.30 1016.11,1365.60 1001.79,1395.75">
        <lane id="-13281272_0" index="0" disallow="tram rail_urban rail rail_electric rail_fast ship container cable_car subway aircraft wheelchair scooter drone" speed="13.89" length="229.41" shape="1036.37,1178.43 1029.06,1296.15 1025.42,1334.57 1017.62,1366.14 1010.21,1381.75"/>
    </edge>
    <edge id="-13287980" from="122617872" to="122617869" name="Rosewood Drive" priority="3" type="highway.residential" shape="5848.95,459.45 5832.71,460.40 5819.33,469.97 5817.42,586.53">
        <lane id="-13287980_0" index="0" disallow="tram rail_urban rail rail_electric rail_fast ship container cable_car subway aircraft wheelchair scooter drone" speed="13.89" length="149.29" shape="5842.12,461.45 5833.26,461.97 5820.92,470.80 5819.02,586.56"/>
    </edge>
    <edge id="-13287982" from="12833144999" to="122617872" name="Rosewood Drive" priority="3" type="highway.residential" shape="5848.95,405.95 5848.95,459.45">
        <lane id="-13287982_0" index="0" disallow="tram rail_urban rail rail_electric rail_fast ship container cable_car subway aircraft wheelchair scooter drone" speed="13.89" length="55.59" shape="5850.55,413.24 5850.55,452.41"/>
    </edge>
    <edge id="-13306938" from="2491888167" to="343596888" name="Park Avenue" priority="3" type="highway.residential" shape="3317.87,34.29 3271.40,122.45 3268.53,145.76 3268.00,153.26 3266.84,169.64">
        <lane id="-13306938_0" index="0" disallow="tram rail_urban rail rail_electric rail_fast ship container cable_car subway aircraft wheelchair scooter drone" speed="13.89" length="147.08" shape="3319.29,35.04 3272.95,122.94 3270.12,145.91 3269.60,153.37 3269.18,159.19"/>
    </edge>
    <edge id="-13330540" from="122654955" to="122655158" name="Corto Road" priority="3" type="highway.residential" shape="894.30,1161.66 893.09,1200.48 893.39,1241.08 892.50,1262.89 890.41,1279.01 886.53,1293.04 879.07,1309.46 868.01,1325.29 852.20,1340.22 828.91,1356.04 797.25,1372.46 773.96,1382.02 757.26,1386.85">
        <lane id="-13330540_0" index="0" disallow="tram rail_urban rail rail_electric rail_fast ship container cable_car subway aircraft wheelchair scooter drone" speed="13.89" length="297.55" shape="895.66,1169.40 894.69,1200.50 894.99,1241.11 894.10,1263.03 891.98,1279.33 888.04,1293.59 880.47,1310.26 869.23,1326.34 853.21,1341.47 829.73,1357.42 797.92,1373.91 774.49,1383.53 765.60,1386.10"/>
    </edge>
    <edge id="-13337552" from="7872086188" to="122917710" name="Robbins Drive" priority="3" type="highway.residential">
        <lane id="-13337552_0" index="0" disallow="tram rail_urban rail rail_electric rail_fast ship container cable_car subway aircraft wheelchair scooter drone" speed="13.89" length="88.59" shape="5685.35,50.62 5604.22,58.87"/>
    </edge>
    <edge id="-13347542" from="1999981182" to="122972849" name="San Antonio Road" priority="3" type="highway.residential" shape="4039.37,1765.18 4032.41,1745.33 4018.72,1729.27 3998.85,1717.65 3980.46,1716.06">
        <lane id="-13347542_0" index="0" disallow="tram rail_urban rail rail_electric rail_fast ship container cable_car subway aircraft wheelchair scooter drone" speed="11.18" length="83.61" shape="4037.86,1765.71 4031.00,1746.14 4017.68,1730.51 3998.35,1719.21 3986.77,1718.21"/>
    </edge>
    <edge id="-13348755" from="1211029495" to="1211029489" name="Minoa Avenue" priority="3" type="highway.residential" shape="4.78,1265.90 5.67,1169.16 4.78,1160.49 0.00,1147.66">
        <lane id="-13348755_0" index="0" disallow="tram rail_urban rail rail_electric rail_fast ship container cable_car subway aircraft wheelchair scooter drone" speed="13.89" length="119.15" shape="3.18,1265.89 4.07,1169.23 3.21,1160.86 -1.50,1148.22"/>
    </edge>
    <edge id="-13359029" from="6732062149" to="123034591" name="Okoboji Drive" priority="3" type="highway.residential" shape="625.11,0.00 705.54,5.27 707.71,5.41 722.61,6.39">
        <lane id="-13359029_0" index="0" disallow="tram rail_urban rail rail_electric rail_fast ship container cable_car subway aircraft wheelchair scooter drone" speed="13.89" length="93.60" shape="625.21,-1.60 705.64,3.67 707.81,3.81 712.31,4.11"/>
    </edge>
    <edge id="-13360156" from="444558593" to="123041592" name="Contented Lane" priority="3" type="highway.residential">
        <lane id="-13360156_0" index="0" disallow="tram rail_urban rail rail_electric rail_fast ship container cable_car subway aircraft wheelchair scooter drone" speed="13.89" length="156.72" shape="5899.90,1014.55 5902.63,865.10"/>
    </edge>
    <edge id="-13372142" from="1211313911" to="123107975" name="Hungate Lane" priority="3" type="highway.residential">
        <lane id="-13372142_0" index="0" disallow="tram rail_urban rail rail_electric rail_fast ship container cable_car subway aircraft wheelchair scooter drone" speed="13.89" length="67.28" shape="1595.82,29.98 1590.67,89.93"/>
    </edge>
    <edge id="-13372222" from="123108386" to="122584041" name="Sano Court" priority="3" type="highway.residential">
        <lane id="-13372222_0" index="0" disallow="tram rail_urban rail rail_electric rail_fast ship container cable_car subway aircraft wheelchair scooter drone" speed="13.89" length="36.86" shape="486.95,765.43 516.84,767.86"/>
    </edge>
    <edge id="-13384124" from="123196986" to="123196984" name="Encino Drive" priority="3" type="highway.residential">
        <lane id="-13384124_0" index="0" disallow="tram rail_urban rail rail_electric rail_fast ship container cable_car subway aircraft wheelchair scooter drone" speed="13.89" length="60.33" shape="6070.62,35.88 6012.79,34.72"/>
    </edge>
    <edge id="-13387500" from="123231544" to="123231541" name="Joaquin Road" priority="3" type="highway.residential">
        <lane id="-13387500_0" index="0" disallow="tram rail_urban rail rail_electric rail_fast ship container cable_car subway aircraft wheelchair scooter drone" speed="13.89" length="98.02" shape="1322.49,366.92 1347.26,454.89"/>
    </edge>
    <edge id="-13387503" from="123231552" to="123231550" name="Joaquin Road" priority="3" type="highway.residential">
        <lane id="-13387503_0" index="0" disallow="tram rail_urban rail rail_electric rail_fast ship container cable_car subway aircraft wheelchair scooter drone" speed="13.89" length="165.69" shape="1520.05,850.35 1525.31,1001.14"/>
    </edge>
    <edge id="-13399406" from="122617872" to="123324139" name="Leafwood Drive" priority="3" type="highway.residential" shape="5848.95,459.45 5891.94,460.40 5909.14,467.10 5912.97,482.39 5912.98,587.52">
        <lane id="-13399406_0" index="0" disallow="tram rail_urban rail rail_electric rail_fast ship container cable_car subway aircraft wheelchair scooter drone" speed="13.89" length="182.35" shape="5856.03,458.01 5892.26,458.81 5910.49,465.91 5914.57,482.19 5914.58,587.52"/>
    </edge>
    <edge id="-13400749" from="12833145021" to="123009837" name="Portola Drive" priority="3" type="highway.residential" shape="695.59,352.72 707.05,350.31 708.43,350.03 727.83,348.54 749.93,347.95 771.42,350.03 786.65,350.93 797.53,349.72 800.09,349.44 810.19,346.62">
        <lane id="-13400749_0" index="0" disallow="tram rail_urban rail rail_electric rail_fast ship container cable_car subway aircraft wheelchair scooter drone" speed="13.89" length="116.57" shape="706.65,348.76 708.21,348.44 727.75,346.94 749.99,346.35 771.54,348.43 786.61,349.32 797.35,348.13 799.79,347.86 802.59,347.08"/>
    </edge>
    <edge id="-13400754" from="123009833" to="122837326" name="Portola Drive" priority="3" type="highway.residential" shape="829.60,380.65 847.22,392.00 864.24,400.37 884.53,406.93 902.16,409.33 919.18,409.62 999.49,405.74 1022.78,404.54 1045.48,405.44 1061.90,407.83 1081.90,412.00 1100.42,415.59 1119.23,417.09 1136.24,417.38 1151.47,415.59 1164.31,413.50 1187.30,407.83">
        <lane id="-13400754_0" index="0" disallow="tram rail_urban rail rail_electric rail_fast ship container cable_car subway aircraft wheelchair scooter drone" speed="13.89" length="366.30" shape="838.76,384.65 848.01,390.60 864.84,398.88 884.89,405.36 902.28,407.73 919.15,408.02 999.41,404.14 1022.77,402.94 1045.63,403.84 1062.18,406.25 1082.22,410.43 1100.64,414.00 1119.31,415.49 1136.16,415.78 1151.25,414.01 1163.99,411.93 1179.89,408.01"/>
    </edge>
    <edge id="-13404285" from="122793557" to="123352966" name="Sierra Blanca Drive" priority="3" type="highway.residential" shape="5681.75,964.90 5814.14,964.39 5814.25,1005.14">
        <lane id="-13404285_0" index="0" disallow="tram rail_urban rail rail_electric rail_fast ship container cable_car subway aircraft wheelchair scooter drone" speed="13.89" length="173.14" shape="5689.07,963.27 5815.74,962.78 5815.85,1005.14"/>
    </edge>
    <edge id="-13405896" from="321925460" to="122875545" name="Monte Verde Drive" priority="3" type="highway.residential" shape="1181.37,1798.64 1261.62,1733.81 1317.59,1703.77 1382.14,1688.79 1419.37,1685.01 1522.84,1686.97">
        <lane id="-13405896_0" index="0" disallow="tram rail_urban rail rail_electric rail_fast ship container cable_car subway aircraft wheelchair scooter drone" speed="13.89" length="373.86" shape="1180.36,1797.40 1260.73,1732.47 1317.02,1702.26 1381.88,1687.21 1419.30,1683.41 1514.33,1685.21"/>
    </edge>
    <edge id="-13407563" from="123194396" to="123375240" name="Santa Cruz Road" priority="3" type="highway.residential" shape="3804.82,1701.57 3815.16,1674.89 3828.21,1651.40 3846.93,1629.93 3872.67,1610.79 3904.07,1599.63 3933.37,1596.10 3965.91,1596.96">
        <lane id="-13407563_0" index="0" disallow="tram rail_urban rail rail_electric rail_fast ship container cable_car subway aircraft wheelchair scooter drone" speed="11.18" length="211.43" shape="3804.28,1698.53 3813.71,1674.21 3826.89,1650.48 3845.84,1628.75 3871.91,1609.36 3903.70,1598.06 3933.30,1594.50 3958.39,1595.16"/>
    </edge>
    <edge id="-13408259" from="1211029993" to="1211029320" name="South Michillinda Drive" priority="3" type="highway.residential" shape="224.23,208.92 217.66,228.32 210.96,238.29 206.62,244.74 189.30,258.78 171.09,269.23 150.48,274.60 127.79,275.50 106.29,272.52 88.38,266.25 71.66,255.80 59.71,243.86 45.97,226.24 39.41,214.30 38.94,212.20 35.23,195.48">
        <lane id="-13408259_0" index="0" disallow="tram rail_urban rail rail_electric rail_fast ship container cable_car subway aircraft wheelchair scooter drone" speed="13.89" length="260.10" shape="219.83,226.90 219.11,229.04 212.29,239.18 207.81,245.83 190.21,260.10 171.70,270.72 150.72,276.19 127.71,277.10 105.91,274.08 87.68,267.70 70.66,257.06 58.51,244.92 44.63,227.12 37.90,214.87 37.38,212.55 36.68,209.41"/>
    </edge>
    <edge id="-13408974" from="123112460" to="123383627" name="Lucile Street" priority="3" type="highway.residential" shape="4820.47,144.38 4495.07,140.17 4486.20,140.05">
        <lane id="-13408974_0" index="0" disallow="tram rail_urban rail rail_electric rail_fast ship container cable_car subway aircraft wheelchair scooter drone" speed="13.89" length="334.30" shape="4813.25,145.89 4495.02,141.77"/>
    </edge>
    <edge id="-13421073" from="1999981183" to="122972849" name="San Luis Rey Road" priority="3" type="highway.residential" shape="3920.44,1771.84 3925.85,1749.47 3942.41,1729.74 3956.72,1719.95 3980.46,1716.06">
        <lane id="-13421073_0" index="0" disallow="tram rail_urban rail rail_electric rail_fast ship container cable_car subway aircraft wheelchair scooter drone" speed="11.18" length="90.17" shape="3918.88,1771.46 3924.38,1748.73 3941.33,1728.54 3956.11,1718.43 3973.92,1715.51"/>
    </edge>
    <edge id="-13447432" from="123514848" to="123571966" name="Armada Road" priority="3" type="highway.residential" shape="1632.24,809.55 1636.53,901.03 1642.92,1037.24">
        <lane id="-13447432_0" index="0" disallow="tram rail_urban rail rail_electric rail_fast ship container cable_car subway aircraft wheelchair scooter drone" speed="13.89" length="227.94" shape="1634.24,818.14 1638.13,900.96 1644.12,1028.74"/>
    </edge>
    <edge id="-13447863" from="1999981181" to="123375240" name="San Miguel Drive" priority="3" type="highway.residential" shape="4154.38,1757.03 4148.59,1730.48 4128.85,1681.43 4106.36,1643.54 4082.45,1620.58 4062.72,1608.79 4037.60,1600.10 3965.91,1596.96">
        <lane id="-13447863_0" index="0" disallow="tram rail_urban rail rail_electric rail_fast ship container cable_car subway aircraft wheelchair scooter drone" speed="11.18" length="278.58" shape="4152.82,1757.37 4147.06,1730.95 4127.41,1682.14 4105.10,1644.54 4081.47,1621.86 4062.04,1610.25 4037.30,1601.69 3973.96,1598.91"/>
    </edge>
    <edge id="-13461229" from="123736992" to="122907054" name="Encino Way" priority="3" type="highway.residential" shape="5973.62,154.21 5987.24,152.61 6018.59,138.18">
        <lane id="-13461229_0" index="0" disallow="tram rail_urban rail rail_electric rail_fast ship container cable_car subway aircraft wheelchair scooter drone" speed="13.89" length="48.23" shape="5973.43,152.62 5986.80,151.05 6011.28,139.78"/>
    </edge>
    <edge id="-13463862" from="123196984" to="122907054" name="Encino Avenue" priority="3" type="highway.residential" shape="6010.33,33.07 6003.69,57.32 6002.49,88.85 6008.20,113.96 6018.59,138.18">
        <lane id="-13463862_0" index="0" disallow="tram rail_urban rail rail_electric rail_fast ship container cable_car subway aircraft wheelchair scooter drone" speed="13.89" length="108.80" shape="6011.21,35.90 6005.28,57.56 6004.10,88.70 6009.73,113.46 6017.25,131.01"/>
    </edge>
    <edge id="-156466455" from="1687158721" to="1687158772" name="Tallac Drive" priority="3" type="highway.residential">
        <lane id="-156466455_0" index="0" disallow="tram rail_urban rail rail_electric rail_fast ship container cable_car subway aircraft wheelchair scooter drone" speed="13.89" length="60.60" shape="1304.45,1344.19 1251.40,1346.11"/>
    </edge>
    <edge id="-187986230" from="1986163259" to="1986163258" priority="3" type="highway.residential" shape="1739.81,733.01 1729.13,724.62 1717.30,723.48 1711.58,724.23 1701.66,727.67">
        <lane id="-187986230_0" index="0" disallow="tram rail_urban rail rail_electric rail_fast ship container cable_car subway aircraft wheelchair scooter drone" speed="13.89" length="41.40" shape="1725.71,725.90 1717.33,725.09 1712.78,725.69"/>
    </edge>
    <edge id="-24672326" from="122693917" to="1211029347" name="Locksley Drive" priority="3" type="highway.residential">
        <lane id="-24672326_0" index="0" disallow="tram rail_urban rail rail_electric rail_fast ship container cable_car subway aircraft wheelchair scooter drone" speed="13.89" length="17.15" shape="67.19,533.98 78.13,533.97"/>
    </edge>
    <edge id="-271237819" from="8672985606" to="7122380263" name="South 1st Avenue" priority="3" type="highway.residential">
        <lane id="-271237819_0" index="0" disallow="tram rail_urban rail rail_electric rail_fast ship container cable_car subway aircraft wheelchair scooter drone" speed="13.89" length="14.15" shape="4826.12,15.21 4825.85,25.36"/>
    </edge>
    <edge id="-292716907" from="268162728" to="268162729" name="Baldwin Avenue" priority="11" type="highway.secondary">
        <lane id="-292716907_0" index="0" disallow="tram rail_urban rail rail_electric rail_fast ship container cable_car subway aircraft wheelchair scooter drone" speed="27.78" length="34.70" shape="1897.14,301.86 1897.16,302.17"/>
        <lane id="-292716907_1" index="1" disallow="tram rail_urban rail rail_electric rail_fast ship container cable_car subway aircraft wheelchair scooter drone" speed="27.78" length="34.70" shape="1893.95,302.11 1893.97,302.41"/>
        <lane id="-292716907_2" index="2" disallow="tram rail_urban rail rail_electric rail_fast ship container cable_car subway aircraft wheelchair scooter drone" speed="27.78" length="34.70" shape="1890.76,302.35 1890.78,302.65"/>
    </edge>
    <edge id="-405276416" from="4085635517" to="123155447" name="South Michillinda Avenue" priority="11" type="highway.secondary">
        <lane id="-405276416_0" index="0" disallow="tram rail_urban rail rail_electric rail_fast ship container cable_car subway aircraft wheelchair scooter drone" speed="27.78" length="50.71" shape="444.93,615.55 444.18,654.16"/>
    </edge>
    <edge id="-405547257" from="122418675" to="4077291326" name="Colorado Place" priority="12" type="highway.primary">
        <lane id="-405547257_0" index="0" disallow="tram rail_urban rail rail_electric rail_fast ship container cable_car subway aircraft wheelchair scooter drone" speed="20.12" length="34.64" shape="3635.22,1635.77 3623.14,1655.83"/>
        <lane id="-405547257_1" index="1" disallow="tram rail_urban rail rail_electric rail_fast ship container cable_car subway aircraft wheelchair scooter drone" speed="20.12" length="34.64" shape="3632.47,1634.12 3620.39,1654.18"/>
    </edge>
    <edge id="-406215627" from="4350384772" to="6483341599" name="Baldwin Avenue" priority="11" type="highway.secondary" shape="1883.13,213.95 1883.08,213.30 1882.12,195.93">
        <lane id="-406215627_0" index="0" disallow="tram rail_urban rail rail_electric rail_fast ship container cable_car subway aircraft wheelchair scooter drone" speed="13.41" length="18.05" shape="1878.33,214.15 1878.29,213.62 1877.33,196.19"/>
        <lane id="-406215627_1" index="1" disallow="tram rail_urban rail rail_electric rail_fast ship container cable_car subway aircraft wheelchair scooter drone" speed="13.41" length="18.05" shape="1881.52,213.91 1881.48,213.41 1880.52,196.02"/>
    </edge>
    <edge id="-406217835" from="6095441692" to="8749177556" name="South Michillinda Avenue" priority="11" type="highway.secondary" shape="450.82,229.43 450.61,240.20 450.32,255.65">
        <lane id="-406217835_0" index="0" disallow="tram rail_urban rail rail_electric rail_fast ship container cable_car subway aircraft wheelchair scooter drone" speed="27.78" length="26.22" shape="455.62,229.52 455.41,240.29 455.12,255.59"/>
        <lane id="-406217835_1" index="1" disallow="tram rail_urban rail rail_electric rail_fast ship container cable_car subway aircraft wheelchair scooter drone" speed="27.78" length="26.22" shape="452.42,229.46 452.21,240.23 451.92,255.53"/>
    </edge>
    <edge id="-406219018" from="4083217169" to="123155447" name="Sunset Boulevard" priority="11" type="highway.secondary" shape="490.46,641.03 484.48,644.14 454.60,658.21 442.39,663.84">
        <lane id="-406219018_0" index="0" disallow="tram rail_urban rail rail_electric rail_fast ship container cable_car subway aircraft wheelchair scooter drone" speed="27.78" length="43.31" shape="478.17,648.88 455.28,659.66 451.33,661.48"/>
    </edge>
    <edge id="-406219020" from="28947755" to="4083217169" name="Sunset Boulevard" priority="11" type="highway.secondary" shape="570.78,595.77 551.08,608.02 541.69,613.38 521.81,624.73 490.46,641.03">
        <lane id="-406219020_0" index="0" disallow="tram rail_urban rail rail_electric rail_fast ship container cable_car subway aircraft wheelchair scooter drone" speed="27.78" length="102.66" shape="566.00,600.63 551.90,609.39 542.48,614.77 522.58,626.14 489.23,643.48"/>
    </edge>