<additional>
    <inductionLoop id="det_-1053007307#1_0" lane="-1053007307#1_0" pos="21.07" freq="60" file="detector_output.xml"/>
    <inductionLoop id="det_-1067483735#1_0" lane="-1067483735#1_0" pos="51.44" freq="60" file="detector_output.xml"/>
    <inductionLoop id="det_-1212691048_0" lane="-1212691048_0" pos="5.1" freq="60" file="detector_output.xml"/>
    <inductionLoop id="det_-1318025801#1_0" lane="-1318025801#1_0" pos="14.7" freq="60" file="detector_output.xml"/>
    <inductionLoop id="det_-1318025801#1_1" lane="-1318025801#1_1" pos="14.7" freq="60" file="detector_output.xml"/>
    <inductionLoop id="det_-1318025801#1_2" lane="-1318025801#1_2" pos="14.7" freq="60" file="detector_output.xml"/>
    <inductionLoop id="det_-13280808#1_0" lane="-13280808#1_0" pos="101.11" freq="60" file="detector_output.xml"/>
    <inductionLoop id="det_-13280808#1_1" lane="-13280808#1_1" pos="101.11" freq="60" file="detector_output.xml"/>
    <inductionLoop id="det_-13283381#0_0" lane="-13283381#0_0" pos="88.5" freq="60" file="detector_output.xml"/>
    <inductionLoop id="det_-13283381#1_0" lane="-13283381#1_0" pos="70.27" freq="60" file="detector_output.xml"/>
    <inductionLoop id="det_-13283406#2_0" lane="-13283406#2_0" pos="38.11" freq="60" file="detector_output.xml"/>
    <inductionLoop id="det_-13287501#1_0" lane="-13287501#1_0" pos="28.78" freq="60" file="detector_output.xml"/>
    <inductionLoop id="det_-13294966#0_0" lane="-13294966#0_0" pos="26.16" freq="60" file="detector_output.xml"/>
    <inductionLoop id="det_-13294966#8_0" lane="-13294966#8_0" pos="5.29" freq="60" file="detector_output.xml"/>
    <inductionLoop id="det_-13309909#1_0" lane="-13309909#1_0" pos="45.09" freq="60" file="detector_output.xml"/>
    <inductionLoop id="det_-13313070#1_0" lane="-13313070#1_0" pos="50.05" freq="60" file="detector_output.xml"/>
    <inductionLoop id="det_-13313070#5_0" lane="-13313070#5_0" pos="23.27" freq="60" file="detector_output.xml"/>
    <inductionLoop id="det_-13313714#1_0" lane="-13313714#1_0" pos="49.69" freq="60" file="detector_output.xml"/>
    <inductionLoop id="det_-13313714#14_0" lane="-13313714#14_0" pos="37.36" freq="60" file="detector_output.xml"/>
    <inductionLoop id="det_-13313714#5_0" lane="-13313714#5_0" pos="11.27" freq="60" file="detector_output.xml"/>
    <inductionLoop id="det_-13341745#0_0" lane="-13341745#0_0" pos="92.59" freq="60" file="detector_output.xml"/>
    <inductionLoop id="det_-13341745#1_0" lane="-13341745#1_0" pos="8.85" freq="60" file="detector_output.xml"/>
    <inductionLoop id="det_-13341745#8_0" lane="-13341745#8_0" pos="34.82" freq="60" file="detector_output.xml"/>
    <inductionLoop id="det_-13343289#11_0" lane="-13343289#11_0" pos="51.5" freq="60" file="detector_output.xml"/>
    <inductionLoop id="det_-13345324#1_0" lane="-13345324#1_0" pos="73.4" freq="60" file="detector_output.xml"/>
    <inductionLoop id="det_-13345324#7_0" lane="-13345324#7_0" pos="54.4" freq="60" file="detector_output.xml"/>
    <inductionLoop id="det_-13360415#1_0" lane="-13360415#1_0" pos="75.18" freq="60" file="detector_output.xml"/>
    <inductionLoop id="det_-1336489164#2_0" lane="-1336489164#2_0" pos="78.86" freq="60" file="detector_output.xml"/>
    <inductionLoop id="det_-1336489164#2_1" lane="-1336489164#2_1" pos="78.86" freq="60" file="detector_output.xml"/>
    <inductionLoop id="det_-13374289#2_0" lane="-13374289#2_0" pos="92.57" freq="60" file="detector_output.xml"/>
    <inductionLoop id="det_-13374289#3_0" lane="-13374289#3_0" pos="7.34" freq="60" file="detector_output.xml"/>
    <inductionLoop id="det_-13400529#11_0" lane="-13400529#11_0" pos="23.8" freq="60" file="detector_output.xml"/>
    <inductionLoop id="det_-13400529#7_0" lane="-13400529#7_0" pos="33.17" freq="60" file="detector_output.xml"/>
    <inductionLoop id="det_-13415299#1_0" lane="-13415299#1_0" pos="85.55" freq="60" file="detector_output.xml"/>
    <inductionLoop id="det_-13419962#0_0" lane="-13419962#0_0" pos="25.95" freq="60" file="detector_output.xml"/>
    <inductionLoop id="det_-13435618#3_0" lane="-13435618#3_0" pos="22.88" freq="60" file="detector_output.xml"/>
    <inductionLoop id="det_-13435624#1_0" lane="-13435624#1_0" pos="40.16" freq="60" file="detector_output.xml"/>
    <inductionLoop id="det_-13444217#1_0" lane="-13444217#1_0" pos="132.64" freq="60" file="detector_output.xml"/>
    <inductionLoop id="det_-13459586#1_0" lane="-13459586#1_0" pos="67.11" freq="60" file="detector_output.xml"/>
    <inductionLoop id="det_-13459586#11_0" lane="-13459586#11_0" pos="17.86" freq="60" file="detector_output.xml"/>
    <inductionLoop id="det_-13459586#6_0" lane="-13459586#6_0" pos="67.71" freq="60" file="detector_output.xml"/>
    <inductionLoop id="det_-13468654#7_0" lane="-13468654#7_0" pos="74.16" freq="60" file="detector_output.xml"/>
    <inductionLoop id="det_-13471353#0_0" lane="-13471353#0_0" pos="25.0" freq="60" file="detector_output.xml"/>
    <inductionLoop id="det_-1364505126_0" lane="-1364505126_0" pos="76.53" freq="60" file="detector_output.xml"/>
    <inductionLoop id="det_-1365508530#0_0" lane="-1365508530#0_0" pos="20.14" freq="60" file="detector_output.xml"/>
    <inductionLoop id="det_-156415834#3_0" lane="-156415834#3_0" pos="58.42" freq="60" file="detector_output.xml"/>
    <inductionLoop id="det_-167077299#0_0" lane="-167077299#0_0" pos="37.48" freq="60" file="detector_output.xml"/>
    <inductionLoop id="det_-167077299#0_1" lane="-167077299#0_1" pos="37.48" freq="60" file="detector_output.xml"/>
    <inductionLoop id="det_-167078565#2_0" lane="-167078565#2_0" pos="61.6" freq="60" file="detector_output.xml"/>
    <inductionLoop id="det_-17212319#0_0" lane="-17212319#0_0" pos="56.63" freq="60" file="detector_output.xml"/>
    <inductionLoop id="det_-17212319#2_0" lane="-17212319#2_0" pos="25.27" freq="60" file="detector_output.xml"/>
    <inductionLoop id="det_-17212339#0_0" lane="-17212339#0_0" pos="85.37" freq="60" file="detector_output.xml"/>
    <inductionLoop id="det_-173415948#3_0" lane="-173415948#3_0" pos="72.02" freq="60" file="detector_output.xml"/>
    <inductionLoop id="det_-192368811#0_0" lane="-192368811#0_0" pos="48.48" freq="60" file="detector_output.xml"/>
    <inductionLoop id="det_-192795641_0" lane="-192795641_0" pos="42.47" freq="60" file="detector_output.xml"/>
    <inductionLoop id="det_-201028260#0_0" lane="-201028260#0_0" pos="65.09" freq="60" file="detector_output.xml"/>
    <inductionLoop id="det_-203028876_0" lane="-203028876_0" pos="16.83" freq="60" file="detector_output.xml"/>
    <inductionLoop id="det_-233019445#0_0" lane="-233019445#0_0" pos="98.56" freq="60" file="detector_output.xml"/>
    <inductionLoop id="det_-246748567#0_0" lane="-246748567#0_0" pos="22.63" freq="60" file="detector_output.xml"/>
    <inductionLoop id="det_-246748567#22_0" lane="-246748567#22_0" pos="37.57" freq="60" file="detector_output.xml"/>
    <inductionLoop id="det_-246748567#28_0" lane="-246748567#28_0" pos="44.74" freq="60" file="detector_output.xml"/>
    <inductionLoop id="det_-246748567#7_0" lane="-246748567#7_0" pos="40.02" freq="60" file="detector_output.xml"/>
    <inductionLoop id="det_-295700308#1_0" lane="-295700308#1_0" pos="86.44" freq="60" file="detector_output.xml"/>
    <inductionLoop id="det_-295700308#1_1" lane="-295700308#1_1" pos="86.44" freq="60" file="detector_output.xml"/>
    <inductionLoop id="det_-390794825#0_0" lane="-390794825#0_0" pos="64.4" freq="60" file="detector_output.xml"/>
    <inductionLoop id="det_-405328864#1_0" lane="-405328864#1_0" pos="20.71" freq="60" file="detector_output.xml"/>
    <inductionLoop id="det_-405328864#1_1" lane="-405328864#1_1" pos="20.71" freq="60" file="detector_output.xml"/>
    <inductionLoop id="det_-405328864#1_2" lane="-405328864#1_2" pos="20.71" freq="60" file="detector_output.xml"/>
    <inductionLoop id="det_-405328881#1_0" lane="-405328881#1_0" pos="32.82" freq="60" file="detector_output.xml"/>
    <inductionLoop id="det_-405328881#1_1" lane="-405328881#1_1" pos="32.82" freq="60" file="detector_output.xml"/>
    <inductionLoop id="det_-405328881#1_2" lane="-405328881#1_2" pos="32.82" freq="60" file="detector_output.xml"/>
    <inductionLoop id="det_-405328886#1_0" lane="-405328886#1_0" pos="26.79" freq="60" file="detector_output.xml"/>
    <inductionLoop id="det_-405328886#1_1" lane="-405328886#1_1" pos="26.79" freq="60" file="detector_output.xml"/>
    <inductionLoop id="det_-405328886#1_2" lane="-405328886#1_2" pos="26.79" freq="60" file="detector_output.xml"/>
    <inductionLoop id="det_-405328898#1_0" lane="-405328898#1_0" pos="43.65" freq="60" file="detector_output.xml"/>
    <inductionLoop id="det_-405328898#1_1" lane="-405328898#1_1" pos="43.65" freq="60" file="detector_output.xml"/>
    <inductionLoop id="det_-405328900#1_0" lane="-405328900#1_0" pos="45.88" freq="60" file="detector_output.xml"/>
    <inductionLoop id="det_-405328900#1_1" lane="-405328900#1_1" pos="45.88" freq="60" file="detector_output.xml"/>
    <inductionLoop id="det_-405328900#1_2" lane="-405328900#1_2" pos="45.88" freq="60" file="detector_output.xml"/>
    <inductionLoop id="det_-405328900#1_3" lane="-405328900#1_3" pos="45.88" freq="60" file="detector_output.xml"/>
    <inductionLoop id="det_-405328902#1_0" lane="-405328902#1_0" pos="27.22" freq="60" file="detector_output.xml"/>
    <inductionLoop id="det_-405328902#1_1" lane="-405328902#1_1" pos="27.22" freq="60" file="detector_output.xml"/>
    <inductionLoop id="det_-405328902#1_2" lane="-405328902#1_2" pos="27.22" freq="60" file="detector_output.xml"/>
    <inductionLoop id="det_-405328903#1_0" lane="-405328903#1_0" pos="19.43" freq="60" file="detector_output.xml"/>
    <inductionLoop id="det_-405328903#1_1" lane="-405328903#1_1" pos="19.43" freq="60" file="detector_output.xml"/>
    <inductionLoop id="det_-405328903#1_2" lane="-405328903#1_2" pos="19.43" freq="60" file="detector_output.xml"/>
    <inductionLoop id="det_-405328903#1_3" lane="-405328903#1_3" pos="19.43" freq="60" file="detector_output.xml"/>
    <inductionLoop id="det_-405328906#1_0" lane="-405328906#1_0" pos="20.5" freq="60" file="detector_output.xml"/>
    <inductionLoop id="det_-405328906#1_1" lane="-405328906#1_1" pos="20.5" freq="60" file="detector_output.xml"/>
    <inductionLoop id="det_-405328906#1_2" lane="-405328906#1_2" pos="20.5" freq="60" file="detector_output.xml"/>
    <inductionLoop id="det_-405328906#1_3" lane="-405328906#1_3" pos="20.5" freq="60" file="detector_output.xml"/>
    <inductionLoop id="det_-405328907#1_0" lane="-405328907#1_0" pos="19.2" freq="60" file="detector_output.xml"/>
    <inductionLoop id="det_-405328907#1_1" lane="-405328907#1_1" pos="19.2" freq="60" file="detector_output.xml"/>
    <inductionLoop id="det_-405328907#1_2" lane="-405328907#1_2" pos="19.2" freq="60" file="detector_output.xml"/>
    <inductionLoop id="det_-405328907#1_3" lane="-405328907#1_3" pos="19.2" freq="60" file="detector_output.xml"/>
    <inductionLoop id="det_-405328908#1_0" lane="-405328908#1_0" pos="51.59" freq="60" file="detector_output.xml"/>
    <inductionLoop id="det_-405328908#1_1" lane="-405328908#1_1" pos="51.59" freq="60" file="detector_output.xml"/>
    <inductionLoop id="det_-405328908#1_2" lane="-405328908#1_2" pos="51.59" freq="60" file="detector_output.xml"/>
    <inductionLoop id="det_-405328911#1_0" lane="-405328911#1_0" pos="4.78" freq="60" file="detector_output.xml"/>
    <inductionLoop id="det_-405328911#1_1" lane="-405328911#1_1" pos="4.78" freq="60" file="detector_output.xml"/>
    <inductionLoop id="det_-405328911#1_2" lane="-405328911#1_2" pos="4.78" freq="60" file="detector_output.xml"/>
    <inductionLoop id="det_-405328911#1_3" lane="-405328911#1_3" pos="4.78" freq="60" file="detector_output.xml"/>
    <inductionLoop id="det_-405328915#1_0" lane="-405328915#1_0" pos="19.76" freq="60" file="detector_output.xml"/>
    <inductionLoop id="det_-405328915#1_1" lane="-405328915#1_1" pos="19.76" freq="60" file="detector_output.xml"/>
    <inductionLoop id="det_-405328915#1_2" lane="-405328915#1_2" pos="19.76" freq="60" file="detector_output.xml"/>
    <inductionLoop id="det_-405328916#1_0" lane="-405328916#1_0" pos="38.47" freq="60" file="detector_output.xml"/>
    <inductionLoop id="det_-405328916#1_1" lane="-405328916#1_1" pos="38.47" freq="60" file="detector_output.xml"/>
    <inductionLoop id="det_-405328916#1_2" lane="-405328916#1_2" pos="38.47" freq="60" file="detector_output.xml"/>
    <inductionLoop id="det_-405328920_0" lane="-405328920_0" pos="5.19" freq="60" file="detector_output.xml"/>
    <inductionLoop id="det_-405328920_1" lane="-405328920_1" pos="5.19" freq="60" file="detector_output.xml"/>
    <inductionLoop id="det_-405328920_2" lane="-405328920_2" pos="5.19" freq="60" file="detector_output.xml"/>
    <inductionLoop id="det_-405328921#1_0" lane="-405328921#1_0" pos="28.48" freq="60" file="detector_output.xml"/>
    <inductionLoop id="det_-405328921#1_1" lane="-405328921#1_1" pos="28.48" freq="60" file="detector_output.xml"/>
    <inductionLoop id="det_-405328936_0" lane="-405328936_0" pos="20.35" freq="60" file="detector_output.xml"/>
    <inductionLoop id="det_-405328936_1" lane="-405328936_1" pos="20.35" freq="60" file="detector_output.xml"/>
    <inductionLoop id="det_-405328936_2" lane="-405328936_2" pos="20.35" freq="60" file="detector_output.xml"/>
    <inductionLoop id="det_-405328958_0" lane="-405328958_0" pos="23.48" freq="60" file="detector_output.xml"/>
    <inductionLoop id="det_-405328958_1" lane="-405328958_1" pos="23.48" freq="60" file="detector_output.xml"/>
    <inductionLoop id="det_-405328958_2" lane="-405328958_2" pos="23.48" freq="60" file="detector_output.xml"/>
    <inductionLoop id="det_-405328989_0" lane="-405328989_0" pos="24.22" freq="60" file="detector_output.xml"/>
    <inductionLoop id="det_-405328989_1" lane="-405328989_1" pos="24.22" freq="60" file="detector_output.xml"/>
    <inductionLoop id="det_-405328989_2" lane="-405328989_2" pos="24.22" freq="60" file="detector_output.xml"/>
    <inductionLoop id="det_-405329022_0" lane="-405329022_0" pos="39.78" freq="60" file="detector_output.xml"/>
    <inductionLoop id="det_-405329022_1" lane="-405329022_1" pos="39.78" freq="60" file="detector_output.xml"/>
    <inductionLoop id="det_-405329041#1_0" lane="-405329041#1_0" pos="28.86" freq="60" file="detector_output.xml"/>
    <inductionLoop id="det_-405329041#1_1" lane="-405329041#1_1" pos="28.86" freq="60" file="detector_output.xml"/>
    <inductionLoop id="det_-405329041#1_2" lane="-405329041#1_2" pos="28.86" freq="60" file="detector_output.xml"/>
    <inductionLoop id="det_-405356506_0" lane="-405356506_0" pos="53.76" freq="60" file="detector_output.xml"/>
    <inductionLoop id="det_-405356507_0" lane="-405356507_0" pos="16.34" freq="60" file="detector_output.xml"/>
    <inductionLoop id="det_-405356509_0" lane="-405356509_0" pos="123.78" freq="60" file="detector_output.xml"/>
    <inductionLoop id="det_-405356514_0" lane="-405356514_0" pos="26.5" freq="60" file="detector_output.xml"/>
    <inductionLoop id="det_-405356514_1" lane="-405356514_1" pos="26.5" freq="60" file="detector_output.xml"/>
    <inductionLoop id="det_-405356514_2" lane="-405356514_2" pos="26.5" freq="60" file="detector_output.xml"/>
    <inductionLoop id="det_-405356522_0" lane="-405356522_0" pos="122.53" freq="60" file="detector_output.xml"/>
    <inductionLoop id="det_-405356545#0_0" lane="-405356545#0_0" pos="40.96" freq="60" file="detector_output.xml"/>
    <inductionLoop id="det_-405356552#0_0" lane="-405356552#0_0" pos="66.52" freq="60" file="detector_output.xml"/>
    <inductionLoop id="det_-405356561#0_0" lane="-405356561#0_0" pos="57.2" freq="60" file="detector_output.xml"/>
    <inductionLoop id="det_-405356612#0_0" lane="-405356612#0_0" pos="70.57" freq="60" file="detector_output.xml"/>
    <inductionLoop id="det_-405356622#0_0" lane="-405356622#0_0" pos="96.75" freq="60" file="detector_output.xml"/>
    <inductionLoop id="det_-405356624#0_0" lane="-405356624#0_0" pos="41.86" freq="60" file="detector_output.xml"/>
    <inductionLoop id="det_-405356654_0" lane="-405356654_0" pos="52.02" freq="60" file="detector_output.xml"/>
    <inductionLoop id="det_-405356655#0_0" lane="-405356655#0_0" pos="29.47" freq="60" file="detector_output.xml"/>
    <inductionLoop id="det_-405356656_0" lane="-405356656_0" pos="20.87" freq="60" file="detector_output.xml"/>
    <inductionLoop id="det_-405356660#0_0" lane="-405356660#0_0" pos="57.66" freq="60" file="detector_output.xml"/>
    <inductionLoop id="det_-405356661#1_0" lane="-405356661#1_0" pos="121.39" freq="60" file="detector_output.xml"/>
    <inductionLoop id="det_-405356663_0" lane="-405356663_0" pos="128.18" freq="60" file="detector_output.xml"/>
    <inductionLoop id="det_-405356678_0" lane="-405356678_0" pos="17.79" freq="60" file="detector_output.xml"/>
    <inductionLoop id="det_-405356678_1" lane="-405356678_1" pos="17.79" freq="60" file="detector_output.xml"/>
    <inductionLoop id="det_-405356678_2" lane="-405356678_2" pos="17.79" freq="60" file="detector_output.xml"/>
    <inductionLoop id="det_-405356689_0" lane="-405356689_0" pos="34.67" freq="60" file="detector_output.xml"/>
    <inductionLoop id="det_-405356689_1" lane="-405356689_1" pos="34.67" freq="60" file="detector_output.xml"/>
    <inductionLoop id="det_-405356689_2" lane="-405356689_2" pos="34.67" freq="60" file="detector_output.xml"/>
    <inductionLoop id="det_-405356692_0" lane="-405356692_0" pos="23.25" freq="60" file="detector_output.xml"/>
    <inductionLoop id="det_-405356692_1" lane="-405356692_1" pos="23.25" freq="60" file="detector_output.xml"/>
    <inductionLoop id="det_-405356692_2" lane="-405356692_2" pos="23.25" freq="60" file="detector_output.xml"/>
    <inductionLoop id="det_-405356693#0_0" lane="-405356693#0_0" pos="57.65" freq="60" file="detector_output.xml"/>
    <inductionLoop id="det_-405356693#0_1" lane="-405356693#0_1" pos="57.65" freq="60" file="detector_output.xml"/>
    <inductionLoop id="det_-405356693#0_2" lane="-405356693#0_2" pos="57.65" freq="60" file="detector_output.xml"/>
    <inductionLoop id="det_-405356695#0_0" lane="-405356695#0_0" pos="48.96" freq="60" file="detector_output.xml"/>
    <inductionLoop id="det_-405356695#0_1" lane="-405356695#0_1" pos="48.96" freq="60" file="detector_output.xml"/>
    <inductionLoop id="det_-405356704#0_0" lane="-405356704#0_0" pos="37.28" freq="60" file="detector_output.xml"/>
    <inductionLoop id="det_-405356704#0_1" lane="-405356704#0_1" pos="37.28" freq="60" file="detector_output.xml"/>
    <inductionLoop id="det_-405356705#6_0" lane="-405356705#6_0" pos="86.25" freq="60" file="detector_output.xml"/>
    <inductionLoop id="det_-405356705#6_1" lane="-405356705#6_1" pos="86.25" freq="60" file="detector_output.xml"/>
    <inductionLoop id="det_-405356771_0" lane="-405356771_0" pos="43.18" freq="60" file="detector_output.xml"/>
    <inductionLoop id="det_-405356772_0" lane="-405356772_0" pos="16.05" freq="60" file="detector_output.xml"/>
    <inductionLoop id="det_-405356776_0" lane="-405356776_0" pos="0.050000000000000044" freq="60" file="detector_output.xml"/>
    <inductionLoop id="det_-405356776_1" lane="-405356776_1" pos="0.050000000000000044" freq="60" file="detector_output.xml"/>
    <inductionLoop id="det_-405356776_2" lane="-405356776_2" pos="0.050000000000000044" freq="60" file="detector_output.xml"/>
    <inductionLoop id="det_-405356785#0_0" lane="-405356785#0_0" pos="81.4" freq="60" file="detector_output.xml"/>
    <inductionLoop id="det_-405356788#0_0" lane="-405356788#0_0" pos="34.72" freq="60" file="detector_output.xml"/>
    <inductionLoop id="det_-405356788#0_1" lane="-405356788#0_1" pos="34.72" freq="60" file="detector_output.xml"/>
    <inductionLoop id="det_-405356794#0_0" lane="-405356794#0_0" pos="92.42" freq="60" file="detector_output.xml"/>
    <inductionLoop id="det_-405356799#0_0" lane="-405356799#0_0" pos="105.09" freq="60" file="detector_output.xml"/>
    <inductionLoop id="det_-405356826_0" lane="-405356826_0" pos="3.9299999999999997" freq="60" file="detector_output.xml"/>
    <inductionLoop id="det_-405356826_1" lane="-405356826_1" pos="3.9299999999999997" freq="60" file="detector_output.xml"/>
    <inductionLoop id="det_-405356826_2" lane="-405356826_2" pos="3.9299999999999997" freq="60" file="detector_output.xml"/>
    <inductionLoop id="det_-405356832#0_0" lane="-405356832#0_0" pos="18.32" freq="60" file="detector_output.xml"/>
    <inductionLoop id="det_-405356832#0_1" lane="-405356832#0_1" pos="18.32" freq="60" file="detector_output.xml"/>
    <inductionLoop id="det_-405356843#0_0" lane="-405356843#0_0" pos="60.01" freq="60" file="detector_output.xml"/>
    <inductionLoop id="det_-405356843#0_1" lane="-405356843#0_1" pos="60.01" freq="60" file="detector_output.xml"/>
    <inductionLoop id="det_-405356843#0_2" lane="-405356843#0_2" pos="60.01" freq="60" file="detector_output.xml"/>
    <inductionLoop id="det_-405356843#0_3" lane="-405356843#0_3" pos="60.01" freq="60" file="detector_output.xml"/>
    <inductionLoop id="det_-405356851#0_0" lane="-405356851#0_0" pos="51.68" freq="60" file="detector_output.xml"/>
    <inductionLoop id="det_-405356851#0_1" lane="-405356851#0_1" pos="51.68" freq="60" file="detector_output.xml"/>
    <inductionLoop id="det_-405356851#0_2" lane="-405356851#0_2" pos="51.68" freq="60" file="detector_output.xml"/>
    <inductionLoop id="det_-405356851#0_3" lane="-405356851#0_3" pos="51.68" freq="60" file="detector_output.xml"/>
    <inductionLoop id="det_-405356858_0" lane="-405356858_0" pos="104.48" freq="60" file="detector_output.xml"/>
    <inductionLoop id="det_-405356859#0_0" lane="-405356859#0_0" pos="10.64" freq="60" file="detector_output.xml"/>
    <inductionLoop id="det_-405356859#0_1" lane="-405356859#0_1" pos="10.64" freq="60" file="detector_output.xml"/>
    <inductionLoop id="det_-405356863_0" lane="-405356863_0" pos="32.89" freq="60" file="detector_output.xml"/>
    <inductionLoop id="det_-405356863_1" lane="-405356863_1" pos="32.89" freq="60" file="detector_output.xml"/>
    <inductionLoop id="det_-405356863_2" lane="-405356863_2" pos="32.89" freq="60" file="detector_output.xml"/>
    <inductionLoop id="det_-405356869#0_0" lane="-405356869#0_0" pos="12.46" freq="60" file="detector_output.xml"/>
    <inductionLoop id="det_-405356870_0" lane="-405356870_0" pos="121.72" freq="60" file="detector_output.xml"/>
    <inductionLoop id="det_-405356873#0_0" lane="-405356873#0_0" pos="33.45" freq="60" file="detector_output.xml"/>
    <inductionLoop id="det_-405356877#0_0" lane="-405356877#0_0" pos="56.4" freq="60" file="detector_output.xml"/>
    <inductionLoop id="det_-405356878#0_0" lane="-405356878#0_0" pos="82.56" freq="60" file="detector_output.xml"/>
    <inductionLoop id="det_-405356880_0" lane="-405356880_0" pos="22.56" freq="60" file="detector_output.xml"/>
    <inductionLoop id="det_-405356884_0" lane="-405356884_0" pos="77.97" freq="60" file="detector_output.xml"/>
    <inductionLoop id="det_-405356884_1" lane="-405356884_1" pos="77.97" freq="60" file="detector_output.xml"/>
    <inductionLoop id="det_-405356897_0" lane="-405356897_0" pos="20.13" freq="60" file="detector_output.xml"/>
    <inductionLoop id="det_-405356906#1_0" lane="-405356906#1_0" pos="13.16" freq="60" file="detector_output.xml"/>
    <inductionLoop id="det_-405356906#1_1" lane="-405356906#1_1" pos="13.16" freq="60" file="detector_output.xml"/>
    <inductionLoop id="det_-405356936_0" lane="-405356936_0" pos="30.03" freq="60" file="detector_output.xml"/>
    <inductionLoop id="det_-405356936_1" lane="-405356936_1" pos="30.03" freq="60" file="detector_output.xml"/>
    <inductionLoop id="det_-405356936_2" lane="-405356936_2" pos="30.03" freq="60" file="detector_output.xml"/>
    <inductionLoop id="det_-405356937#0_0" lane="-405356937#0_0" pos="67.33" freq="60" file="detector_output.xml"/>
    <inductionLoop id="det_-405356937#0_1" lane="-405356937#0_1" pos="67.33" freq="60" file="detector_output.xml"/>
    <inductionLoop id="det_-405356937#0_2" lane="-405356937#0_2" pos="67.33" freq="60" file="detector_output.xml"/>
    <inductionLoop id="det_-405356957#1_0" lane="-405356957#1_0" pos="17.66" freq="60" file="detector_output.xml"/>
    <inductionLoop id="det_-405356957#1_1" lane="-405356957#1_1" pos="17.66" freq="60" file="detector_output.xml"/>
    <inductionLoop id="det_-405356961#0_0" lane="-405356961#0_0" pos="27.48" freq="60" file="detector_output.xml"/>
    <inductionLoop id="det_-405356966_0" lane="-405356966_0" pos="44.37" freq="60" file="detector_output.xml"/>
    <inductionLoop id="det_-405356966_1" lane="-405356966_1" pos="44.37" freq="60" file="detector_output.xml"/>
    <inductionLoop id="det_-405356966_2" lane="-405356966_2" pos="44.37" freq="60" file="detector_output.xml"/>
    <inductionLoop id="det_-405356966_3" lane="-405356966_3" pos="44.37" freq="60" file="detector_output.xml"/>
    <inductionLoop id="det_-405356970_0" lane="-405356970_0" pos="16.7" freq="60" file="detector_output.xml"/>
    <inductionLoop id="det_-405356970_1" lane="-405356970_1" pos="16.7" freq="60" file="detector_output.xml"/>
    <inductionLoop id="det_-405356970_2" lane="-405356970_2" pos="16.7" freq="60" file="detector_output.xml"/>
    <inductionLoop id="det_-405356973#1_0" lane="-405356973#1_0" pos="11.69" freq="60" file="detector_output.xml"/>
    <inductionLoop id="det_-405356973#1_1" lane="-405356973#1_1" pos="11.69" freq="60" file="detector_output.xml"/>
    <inductionLoop id="det_-405356973#1_2" lane="-405356973#1_2" pos="11.69" freq="60" file="detector_output.xml"/>
    <inductionLoop id="det_-405356974_0" lane="-405356974_0" pos="31.560000000000002" freq="60" file="detector_output.xml"/>
    <inductionLoop id="det_-405356974_1" lane="-405356974_1" pos="31.560000000000002" freq="60" file="detector_output.xml"/>
    <inductionLoop id="det_-405356974_2" lane="-405356974_2" pos="31.560000000000002" freq="60" file="detector_output.xml"/>
    <inductionLoop id="det_-405356974_3" lane="-405356974_3" pos="31.560000000000002" freq="60" file="detector_output.xml"/>
    <inductionLoop id="det_-405356975_0" lane="-405356975_0" pos="25.75" freq="60" file="detector_output.xml"/>
    <inductionLoop id="det_-405356975_1" lane="-405356975_1" pos="25.75" freq="60" file="detector_output.xml"/>
    <inductionLoop id="det_-405356975_2" lane="-405356975_2" pos="25.75" freq="60" file="detector_output.xml"/>
    <inductionLoop id="det_-405356980#1_0" lane="-405356980#1_0" pos="11.77" freq="60" file="detector_output.xml"/>
    <inductionLoop id="det_-405356980#1_1" lane="-405356980#1_1" pos="11.77" freq="60" file="detector_output.xml"/>
    <inductionLoop id="det_-405356980#1_2" lane="-405356980#1_2" pos="11.77" freq="60" file="detector_output.xml"/>
    <inductionLoop id="det_-405356986_0" lane="-405356986_0" pos="20.43" freq="60" file="detector_output.xml"/>
    <inductionLoop id="det_-405356986_1" lane="-405356986_1" pos="20.43" freq="60" file="detector_output.xml"/>
    <inductionLoop id="det_-405356986_2" lane="-405356986_2" pos="20.43" freq="60" file="detector_output.xml"/>
    <inductionLoop id="det_-405356989_0" lane="-405356989_0" pos="18.66" freq="60" file="detector_output.xml"/>
    <inductionLoop id="det_-405356989_1" lane="-405356989_1" pos="18.66" freq="60" file="detector_output.xml"/>
    <inductionLoop id="det_-405356989_2" lane="-405356989_2" pos="18.66" freq="60" file="detector_output.xml"/>
    <inductionLoop id="det_-405356990#0_0" lane="-405356990#0_0" pos="45.51" freq="60" file="detector_output.xml"/>
    <inductionLoop id="det_-405356990#0_1" lane="-405356990#0_1" pos="45.51" freq="60" file="detector_output.xml"/>
    <inductionLoop id="det_-405356990#0_2" lane="-405356990#0_2" pos="45.51" freq="60" file="detector_output.xml"/>
    <inductionLoop id="det_-405356993#0_0" lane="-405356993#0_0" pos="30.15" freq="60" file="detector_output.xml"/>
    <inductionLoop id="det_-405356993#0_1" lane="-405356993#0_1" pos="30.15" freq="60" file="detector_output.xml"/>
    <inductionLoop id="det_-405356993#0_2" lane="-405356993#0_2" pos="30.15" freq="60" file="detector_output.xml"/>
    <inductionLoop id="det_-405356993#0_3" lane="-405356993#0_3" pos="30.15" freq="60" file="detector_output.xml"/>
    <inductionLoop id="det_-405357000_0" lane="-405357000_0" pos="18.23" freq="60" file="detector_output.xml"/>
    <inductionLoop id="det_-405357000_1" lane="-405357000_1" pos="18.23" freq="60" file="detector_output.xml"/>
    <inductionLoop id="det_-405357000_2" lane="-405357000_2" pos="18.23" freq="60" file="detector_output.xml"/>
    <inductionLoop id="det_-405357001_0" lane="-405357001_0" pos="63.08" freq="60" file="detector_output.xml"/>
    <inductionLoop id="det_-405357001_1" lane="-405357001_1" pos="63.08" freq="60" file="detector_output.xml"/>
    <inductionLoop id="det_-405357003_0" lane="-405357003_0" pos="53.57" freq="60" file="detector_output.xml"/>
    <inductionLoop id="det_-405357069#2_0" lane="-405357069#2_0" pos="47.6" freq="60" file="detector_output.xml"/>
    <inductionLoop id="det_-405357069#2_1" lane="-405357069#2_1" pos="47.6" freq="60" file="detector_output.xml"/>
    <inductionLoop id="det_-405357069#2_2" lane="-405357069#2_2" pos="47.6" freq="60" file="detector_output.xml"/>
    <inductionLoop id="det_-405367250_0" lane="-405367250_0" pos="22.0" freq="60" file="detector_output.xml"/>
    <inductionLoop id="det_-405373598#1_0" lane="-405373598#1_0" pos="119.76" freq="60" file="detector_output.xml"/>
    <inductionLoop id="det_-405378472#1_0" lane="-405378472#1_0" pos="65.07" freq="60" file="detector_output.xml"/>
    <inductionLoop id="det_-405378472#1_1" lane="-405378472#1_1" pos="65.07" freq="60" file="detector_output.xml"/>
    <inductionLoop id="det_-415525754#1_0" lane="-415525754#1_0" pos="30.24" freq="60" file="detector_output.xml"/>