<?xml version="1.0" encoding="UTF-8"?>

<!-- generated on 2025-05-02 16:37:25.595018 by osmWebWizard.py UNKNOWN
<configuration>
    <net-file value="/Users/nedasarbalavandeymir/Sumo/2025-05-02-16-37-12/osm.net.xml.gz"/>
    <output-trip-file value="/Users/nedasarbalavandeymir/Sumo/2025-05-02-16-37-12/osm.passenger.trips.xml"/>
    <route-file value="/Users/nedasarbalavandeymir/Sumo/2025-05-02-16-37-12/osm.passenger.rou.xml"/>
    <prefix value="veh"/>
    <trip-attributes value="departLane=&quot;best&quot;"/>
    <fringe-start-attributes value="departSpeed=&quot;max&quot;"/>
    <vehicle-class value="passenger"/>
    <lanes value="True"/>
    <fringe-factor value="5"/>
    <allow-fringe.min-length value="1000.0"/>
    <via-edge-types value="highway.motorway,highway.motorway_link,highway.trunk_link,highway.primary_link,highway.secondary_link,highway.tertiary_link"/>
    <min-distance value="300.0"/>
    <min-distance.fringe value="10.0"/>
    <remove-loops value="True"/>
    <validate value="True"/>
    <insertion-density value="12.0"/>
</configuration>
-->

<!-- generated on 2025-05-02 16:37:25 by Eclipse SUMO duarouter Version 1.22.0
<duarouterConfiguration xmlns:xsi="http://www.w3.org/2001/XMLSchema-instance" xsi:noNamespaceSchemaLocation="http://sumo.dlr.de/xsd/duarouterConfiguration.xsd">

    <input>
        <net-file value="/Users/nedasarbalavandeymir/Sumo/2025-05-02-16-37-12/osm.net.xml.gz"/>
        <route-files value="/Users/nedasarbalavandeymir/Sumo/2025-05-02-16-37-12/osm.passenger.trips.xml"/>
    </input>

    <output>
        <output-file value="/Users/nedasarbalavandeymir/Sumo/2025-05-02-16-37-12/osm.passenger.trips.xml.tmp"/>
        <alternatives-output value="NUL"/>
        <write-trips value="true"/>
    </output>

    <processing>
        <remove-loops value="true"/>
    </processing>

    <time>
        <begin value="0.0"/>
        <end value="3600.0"/>
    </time>

    <report>
        <no-warnings value="true"/>
        <ignore-errors value="true"/>
        <no-step-log value="true"/>
    </report>

</duarouterConfiguration>
-->

<routes xmlns:xsi="http://www.w3.org/2001/XMLSchema-instance" xsi:noNamespaceSchemaLocation="http://sumo.dlr.de/xsd/routes_file.xsd">
    <vType id="veh_passenger" vClass="passenger"/>
    <trip id="veh0" type="veh_passenger" depart="0.00" departLane="best" from="203028872#0" to="-13294966#6"/>
    <trip id="veh1" type="veh_passenger" depart="1.73" departLane="best" from="-405356691#1" to="-405356504"/>
    <trip id="veh2" type="veh_passenger" depart="3.46" departLane="best" from="405329016" to="405328884#0"/>
    <trip id="veh3" type="veh_passenger" depart="5.19" departLane="best" from="405356868#0" to="-13400529#5"/>
    <trip id="veh4" type="veh_passenger" depart="6.92" departLane="best" from="1057089481#2" to="-13309909#12"/>
    <trip id="veh5" type="veh_passenger" depart="8.65" departLane="best" from="-405328907#1" to="13386563#0"/>
    <trip id="veh6" type="veh_passenger" depart="10.38" departLane="best" from="-13294966#13" to="405328906#0"/>
    <trip id="veh7" type="veh_passenger" depart="12.10" departLane="best" from="237056448#1" to="13435616#8"/>
    <trip id="veh8" type="veh_passenger" depart="13.83" departLane="best" from="-405328910" to="167078562#3"/>
    <trip id="veh9" type="veh_passenger" depart="15.56" departLane="best" from="-405356705#3" to="-1266676371#0"/>
    <trip id="veh10" type="veh_passenger" depart="17.29" departLane="best" from="405356704#6" to="405328922#1"/>
    <trip id="veh11" type="veh_passenger" depart="19.02" departLane="best" from="405356970" to="-181582598#1"/>
    <trip id="veh12" type="veh_passenger" depart="20.75" departLane="best" from="561836192" to="-405356995"/>
    <trip id="veh13" type="veh_passenger" depart="22.48" departLane="best" from="-13400529#0" to="405356878#1"/>
    <trip id="veh14" type="veh_passenger" depart="24.21" departLane="best" from="-405356783#1" to="173415948#5"/>
    <trip id="veh15" type="veh_passenger" depart="25.94" departLane="best" from="405356705#0" to="405329022"/>
    <trip id="veh16" type="veh_passenger" depart="27.67" departLane="best" from="13400529#4" to="670645316#0"/>
    <trip id="veh17" type="veh_passenger" depart="29.40" departLane="best" from="-558766204" to="13450892#3"/>
    <trip id="veh18" type="veh_passenger" depart="31.13" departLane="best" from="405356734" to="203028825#0"/>
    <trip id="veh19" type="veh_passenger" depart="32.85" departLane="best" from="-405356827#0" to="1365645896#0"/>
    <trip id="veh20" type="veh_passenger" depart="34.58" departLane="best" from="405328909" to="13326721#0"/>
    <trip id="veh21" type="veh_passenger" depart="36.31" departLane="best" from="405328922#0" to="-405356843#1"/>
    <trip id="veh22" type="veh_passenger" depart="38.04" departLane="best" departSpeed="max" from="-13374289#3" to="-405356655#0"/>
    <trip id="veh23" type="veh_passenger" depart="39.77" departLane="best" from="-13409284#4" to="405356789#7"/>
    <trip id="veh24" type="veh_passenger" depart="41.50" departLane="best" from="-203028825#1" to="-629454876#11"/>
    <trip id="veh25" type="veh_passenger" depart="43.23" departLane="best" from="-405373680#2" to="-405328921#3"/>
    <trip id="veh26" type="veh_passenger" depart="44.96" departLane="best" from="-405356683#5" to="405373598#0"/>
    <trip id="veh27" type="veh_passenger" depart="46.69" departLane="best" from="203028875#9" to="185735869"/>
    <trip id="veh28" type="veh_passenger" depart="48.42" departLane="best" from="-185937914#3" to="405329022"/>
    <trip id="veh29" type="veh_passenger" depart="50.15" departLane="best" from="-17199617#9" to="1036461004"/>
    <trip id="veh30" type="veh_passenger" depart="51.88" departLane="best" from="733226296#4" to="237056456"/>
    <trip id="veh31" type="veh_passenger" depart="53.61" departLane="best" from="13433796#8" to="-405328900#1"/>
    <trip id="veh32" type="veh_passenger" depart="55.33" departLane="best" from="405356751" to="405356687#1"/>
    <trip id="veh33" type="veh_passenger" depart="57.06" departLane="best" from="-405328922#1" to="-13309909#7"/>
    <trip id="veh34" type="veh_passenger" depart="58.79" departLane="best" from="-405356851#1" to="-405356705#7"/>
    <trip id="veh35" type="veh_passenger" depart="60.52" departLane="best" from="405328897#0" to="405378472#3"/>
    <trip id="veh36" type="veh_passenger" depart="62.25" departLane="best" from="405356842" to="405356960"/>
    <trip id="veh37" type="veh_passenger" depart="63.98" departLane="best" from="246748567#15" to="1057089481#1"/>
    <trip id="veh38" type="veh_passenger" depart="65.71" departLane="best" from="405356969" to="13313070#9"/>
    <trip id="veh39" type="veh_passenger" depart="67.44" departLane="best" from="13435618#1" to="-405356704#3"/>
    <trip id="veh40" type="veh_passenger" depart="69.17" departLane="best" from="1364431350" to="405356939#0"/>
    <trip id="veh41" type="veh_passenger" depart="70.90" departLane="best" from="1036461001#0" to="405329032"/>
    <trip id="veh42" type="veh_passenger" depart="72.63" departLane="best" from="971569928#0" to="13390317#2"/>
    <trip id="veh43" type="veh_passenger" depart="74.36" departLane="best" from="-13398383#2" to="13341745#11"/>
    <trip id="veh44" type="veh_passenger" depart="76.09" departLane="best" from="-13420648#7" to="203028872#1"/>
    <trip id="veh45" type="veh_passenger" depart="77.81" departLane="best" from="405356691#2" to="1280764975"/>
    <trip id="veh46" type="veh_passenger" depart="79.54" departLane="best" from="-13347599#8" to="-104358670#1"/>
    <trip id="veh47" type="veh_passenger" depart="81.27" departLane="best" departSpeed="max" from="967560483" to="13409287#9"/>
    <trip id="veh48" type="veh_passenger" depart="83.00" departLane="best" from="629454876#2" to="405356837"/>
    <trip id="veh49" type="veh_passenger" depart="84.73" departLane="best" from="-13280795#3" to="405329007"/>
    <trip id="veh50" type="veh_passenger" depart="86.46" departLane="best" from="-405356683#4" to="237056457"/>
    <trip id="veh51" type="veh_passenger" depart="88.19" departLane="best" from="-13427958#2" to="13287501#0"/>
    <trip id="veh52" type="veh_passenger" depart="89.92" departLane="best" from="13283366#2" to="-561836207"/>
    <trip id="veh53" type="veh_passenger" depart="91.65" departLane="best" from="405356842" to="-405356704#6"/>
    <trip id="veh54" type="veh_passenger" depart="93.38" departLane="best" from="405356966" to="405356849#0"/>
    <trip id="veh55" type="veh_passenger" depart="95.11" departLane="best" from="-405356792#1" to="237056450"/>
    <trip id="veh56" type="veh_passenger" depart="96.84" departLane="best" from="167078559#1" to="173415948#1"/>
    <trip id="veh57" type="veh_passenger" depart="98.56" departLane="best" from="405356658" to="13433796#2"/>
    <trip id="veh58" type="veh_passenger" depart="100.29" departLane="best" from="405356683#1" to="13419962#0"/>
    <trip id="veh59" type="veh_passenger" depart="102.02" departLane="best" from="104358670#0" to="-405356976#1"/>
    <trip id="veh60" type="veh_passenger" depart="103.75" departLane="best" from="-13283406#4" to="-405357004#1"/>
    <trip id="veh61" type="veh_passenger" depart="105.48" departLane="best" from="405356846" to="405356774"/>
    <trip id="veh62" type="veh_passenger" depart="107.21" departLane="best" from="-405356843#0" to="-13347599#7"/>
    <trip id="veh63" type="veh_passenger" depart="108.94" departLane="best" from="-405356843#1" to="415788615#0"/>
    <trip id="veh64" type="veh_passenger" depart="110.67" departLane="best" from="-13386563#5" to="-13347602#2"/>
    <trip id="veh65" type="veh_passenger" depart="112.40" departLane="best" from="-13360415#3" to="-405356674#0"/>
    <trip id="veh66" type="veh_passenger" depart="114.13" departLane="best" from="405356665" to="13472003#2"/>
    <trip id="veh67" type="veh_passenger" depart="115.86" departLane="best" from="13309909#6" to="13446400#1"/>
    <trip id="veh68" type="veh_passenger" depart="117.59" departLane="best" from="-405356683#1" to="405356851#1"/>
    <trip id="veh69" type="veh_passenger" depart="119.32" departLane="best" from="1057089481#5" to="405328924#0"/>
    <trip id="veh70" type="veh_passenger" depart="121.04" departLane="best" from="13405538#15" to="405329022"/>
    <trip id="veh71" type="veh_passenger" depart="122.77" departLane="best" from="405328868#0" to="-405356937#1"/>
    <trip id="veh72" type="veh_passenger" depart="124.50" departLane="best" departSpeed="max" from="119259554" to="-13400529#1"/>
    <trip id="veh73" type="veh_passenger" depart="126.23" departLane="best" from="-13435618#5" to="-405356513"/>
    <trip id="veh74" type="veh_passenger" depart="127.96" departLane="best" from="-405356966" to="167078559#1"/>
    <trip id="veh75" type="veh_passenger" depart="129.69" departLane="best" from="-405328924#0" to="405329045#0"/>
    <trip id="veh76" type="veh_passenger" depart="131.42" departLane="best" from="13362626#1" to="203028875#11"/>
    <trip id="veh77" type="veh_passenger" depart="133.15" departLane="best" from="405328922#1" to="-405356963"/>
    <trip id="veh78" type="veh_passenger" depart="134.88" departLane="best" from="405356824#0" to="13372156#16"/>
    <trip id="veh79" type="veh_passenger" depart="136.61" departLane="best" departSpeed="max" from="-405329022" to="405328861"/>
    <trip id="veh80" type="veh_passenger" depart="138.34" departLane="best" from="-405328902#1" to="-1364760966#3"/>
    <trip id="veh81" type="veh_passenger" depart="140.07" departLane="best" from="13309909#10" to="405356695#3"/>
    <trip id="veh82" type="veh_passenger" depart="141.80" departLane="best" from="-405356705#0" to="-405328891#1"/>
    <trip id="veh83" type="veh_passenger" depart="143.52" departLane="best" from="-13405538#12" to="13283368#0"/>
    <trip id="veh84" type="veh_passenger" depart="145.25" departLane="best" from="1057097342" to="13313714#13"/>
    <trip id="veh85" type="veh_passenger" depart="146.98" departLane="best" from="405328946#1" to="-405328871#1"/>
    <trip id="veh86" type="veh_passenger" depart="148.71" departLane="best" from="71738860#0" to="-13420648#4"/>
    <trip id="veh87" type="veh_passenger" depart="150.44" departLane="best" from="1036516251" to="-405357000"/>
    <trip id="veh88" type="veh_passenger" depart="152.17" departLane="best" from="405356824#4" to="405356683#9"/>
    <trip id="veh89" type="veh_passenger" depart="153.90" departLane="best" from="-246748567#6" to="13298929#3"/>
    <trip id="veh90" type="veh_passenger" depart="155.63" departLane="best" from="1057089481#2" to="-405356792#0"/>
    <trip id="veh91" type="veh_passenger" depart="157.36" departLane="best" from="-405356561#1" to="405356995"/>
    <trip id="veh92" type="veh_passenger" depart="159.09" departLane="best" from="1266676371#0" to="405356837"/>
    <trip id="veh93" type="veh_passenger" depart="160.82" departLane="best" from="13420705#1" to="-13343289#0"/>
    <trip id="veh94" type="veh_passenger" depart="162.55" departLane="best" from="983125881#0" to="405356785#1"/>
    <trip id="veh95" type="veh_passenger" depart="164.27" departLane="best" from="-629454876#0" to="405357000"/>
    <trip id="veh96" type="veh_passenger" depart="166.00" departLane="best" from="405356785#3" to="-237056457"/>
    <trip id="veh97" type="veh_passenger" depart="167.73" departLane="best" from="13313713#8" to="405328925#0"/>
    <trip id="veh98" type="veh_passenger" depart="169.46" departLane="best" from="1036461002#1" to="-13347602#0"/>
    <trip id="veh99" type="veh_passenger" depart="171.19" departLane="best" from="561836203#0" to="733226296#5"/>
    <trip id="veh100" type="veh_passenger" depart="172.92" departLane="best" from="-405356683#1" to="-405356695#1"/>
    <trip id="veh101" type="veh_passenger" depart="174.65" departLane="best" from="13283368#2" to="1280764976#0"/>
    <trip id="veh102" type="veh_passenger" depart="176.38" departLane="best" from="561836192" to="964868482"/>
    <trip id="veh103" type="veh_passenger" depart="178.11" departLane="best" from="13433796#4" to="1154654357"/>
    <trip id="veh104" type="veh_passenger" depart="179.84" departLane="best" from="-167077299#6" to="405356854#0"/>
    <trip id="veh105" type="veh_passenger" depart="181.57" departLane="best" from="627780982#6" to="156415827"/>
    <trip id="veh106" type="veh_passenger" depart="183.30" departLane="best" from="13409284#2" to="405356625"/>
    <trip id="veh107" type="veh_passenger" depart="185.03" departLane="best" from="-13343289#2" to="167077299#0"/>
    <trip id="veh108" type="veh_passenger" depart="186.75" departLane="best" from="-13347599#4" to="405356829#0"/>
    <trip id="veh109" type="veh_passenger" depart="188.48" departLane="best" departSpeed="max" from="-167078565#6" to="627780982#0"/>
    <trip id="veh110" type="veh_passenger" depart="190.21" departLane="best" departSpeed="max" from="-13374289#3" to="405328879#0"/>
    <trip id="veh111" type="veh_passenger" depart="191.94" departLane="best" from="156415834#5" to="405328876#0"/>
    <trip id="veh112" type="veh_passenger" depart="193.67" departLane="best" from="405328953#2" to="-13459588#3"/>
    <trip id="veh113" type="veh_passenger" depart="195.40" departLane="best" from="405356860" to="-405356683#5"/>
    <trip id="veh114" type="veh_passenger" depart="197.13" departLane="best" from="-156415834#3" to="203028825#1"/>
    <trip id="veh115" type="veh_passenger" depart="198.86" departLane="best" from="1057089479" to="156415834#9"/>
    <trip id="veh116" type="veh_passenger" depart="200.59" departLane="best" from="13385884#1" to="405373566#4"/>
    <trip id="veh117" type="veh_passenger" depart="202.32" departLane="best" from="-405328879#1" to="405328948#1"/>
    <trip id="veh118" type="veh_passenger" depart="204.05" departLane="best" departSpeed="max" from="-405329022" to="1057089481#2"/>
    <trip id="veh119" type="veh_passenger" depart="205.78" departLane="best" from="390794825#0" to="-405356857#1"/>
    <trip id="veh120" type="veh_passenger" depart="207.51" departLane="best" from="-405356854#0" to="405356661#5"/>
    <trip id="veh121" type="veh_passenger" depart="209.23" departLane="best" from="-1336489164#0" to="13313070#7"/>
    <trip id="veh122" type="veh_passenger" depart="210.96" departLane="best" from="971569928#2" to="964868482"/>
    <trip id="veh123" type="veh_passenger" depart="212.69" departLane="best" from="-1336489164#1" to="405328924#2"/>
    <trip id="veh124" type="veh_passenger" depart="214.42" departLane="best" from="-405356683#1" to="405373566#2"/>
    <trip id="veh125" type="veh_passenger" depart="216.15" departLane="best" from="405356849#1" to="405356859#0"/>
    <trip id="veh126" type="veh_passenger" depart="217.88" departLane="best" from="405373680#1" to="-185937914#1"/>
    <trip id="veh127" type="veh_passenger" depart="219.61" departLane="best" from="405356745#1" to="405328928#0"/>
    <trip id="veh128" type="veh_passenger" depart="221.34" departLane="best" from="17199609#1" to="733226296#8"/>
    <trip id="veh129" type="veh_passenger" depart="223.07" departLane="best" from="246748567#1" to="-1266676371#2"/>
    <trip id="veh130" type="veh_passenger" depart="224.80" departLane="best" from="405356715" to="-405356856#1"/>
    <trip id="veh131" type="veh_passenger" depart="226.53" departLane="best" departSpeed="max" from="25655920" to="-405373637"/>
    <trip id="veh132" type="veh_passenger" depart="228.26" departLane="best" from="-405356508#0" to="-13458858"/>
    <trip id="veh133" type="veh_passenger" depart="229.98" departLane="best" departSpeed="max" from="-13419962#1" to="13458858"/>
    <trip id="veh134" type="veh_passenger" depart="231.71" departLane="best" from="-405356687#0" to="17489161"/>
    <trip id="veh135" type="veh_passenger" depart="233.44" departLane="best" from="405328927#0" to="405328911#0"/>
    <trip id="veh136" type="veh_passenger" depart="235.17" departLane="best" from="203028817#2" to="-405356705#0"/>
    <trip id="veh137" type="veh_passenger" depart="236.90" departLane="best" from="13313714#5" to="-405356963"/>
    <trip id="veh138" type="veh_passenger" depart="238.63" departLane="best" from="-405356777#0" to="-13409284#1"/>
    <trip id="veh139" type="veh_passenger" depart="240.36" departLane="best" from="1057097342" to="405356789#11"/>
    <trip id="veh140" type="veh_passenger" depart="242.09" departLane="best" from="-1053007307#5" to="405356683#7"/>
    <trip id="veh141" type="veh_passenger" depart="243.82" departLane="best" from="-203028825#3" to="-405356704#2"/>
    <trip id="veh142" type="veh_passenger" depart="245.55" departLane="best" from="405329018#5" to="13450892#2"/>
    <trip id="veh143" type="veh_passenger" depart="247.28" departLane="best" from="1063508478#0" to="-13280795#1"/>
    <trip id="veh144" type="veh_passenger" depart="249.01" departLane="best" from="-13372156#12" to="405356873#1"/>
    <trip id="veh145" type="veh_passenger" depart="250.74" departLane="best" from="405356913" to="13435618#1"/>
    <trip id="veh146" type="veh_passenger" depart="252.46" departLane="best" from="405356745#2" to="156415834#4"/>
    <trip id="veh147" type="veh_passenger" depart="254.19" departLane="best" from="-1365645896#1" to="-13471353#3"/>
    <trip id="veh148" type="veh_passenger" depart="255.92" departLane="best" from="-405356843#1" to="405356942"/>
    <trip id="veh149" type="veh_passenger" depart="257.65" departLane="best" from="405356695#1" to="1036461004"/>
    <trip id="veh150" type="veh_passenger" depart="259.38" departLane="best" from="405356905" to="-405328922#0"/>
    <trip id="veh151" type="veh_passenger" depart="261.11" departLane="best" from="-405356561#0" to="-13433796#14"/>
    <trip id="veh152" type="veh_passenger" depart="262.84" departLane="best" from="405356683#2" to="405356875"/>
    <trip id="veh153" type="veh_passenger" depart="264.57" departLane="best" departSpeed="max" from="1053007302" to="203028825#2"/>
    <trip id="veh154" type="veh_passenger" depart="266.30" departLane="best" from="-167077299#6" to="405357004#2"/>
    <trip id="veh155" type="veh_passenger" depart="268.03" departLane="best" from="405356829#0" to="715827985"/>
    <trip id="veh156" type="veh_passenger" depart="269.76" departLane="best" from="405356705#5" to="-405356878#0"/>
    <trip id="veh157" type="veh_passenger" depart="271.49" departLane="best" departSpeed="max" from="-13287575" to="405356512"/>
    <trip id="veh158" type="veh_passenger" depart="273.22" departLane="best" from="-405356937#0" to="405367250"/>
    <trip id="veh159" type="veh_passenger" depart="274.94" departLane="best" from="-405356704#0" to="405356843#0"/>
    <trip id="veh160" type="veh_passenger" depart="276.67" departLane="best" from="-405356685" to="-13435616#3"/>
    <trip id="veh161" type="veh_passenger" depart="278.40" departLane="best" from="-405328913#1" to="405356732"/>
    <trip id="veh162" type="veh_passenger" depart="280.13" departLane="best" from="13287501#16" to="-405356872"/>
    <trip id="veh163" type="veh_passenger" depart="281.86" departLane="best" from="405356694" to="-405356545#3"/>
    <trip id="veh164" type="veh_passenger" depart="283.59" departLane="best" from="-13287501#8" to="-405328897#1"/>
    <trip id="veh165" type="veh_passenger" depart="285.32" departLane="best" departSpeed="max" from="-405356897" to="405356843#0"/>
    <trip id="veh166" type="veh_passenger" depart="287.05" departLane="best" from="-627775180#3" to="405356799#3"/>
    <trip id="veh167" type="veh_passenger" depart="288.78" departLane="best" from="670645316#8" to="13423706#2"/>
    <trip id="veh168" type="veh_passenger" depart="290.51" departLane="best" from="405373598#0" to="-13458858"/>
    <trip id="veh169" type="veh_passenger" depart="292.24" departLane="best" from="629454876#15" to="390919411#0"/>
    <trip id="veh170" type="veh_passenger" depart="293.97" departLane="best" departSpeed="max" from="607202789" to="-405356705#3"/>
    <trip id="veh171" type="veh_passenger" depart="295.69" departLane="best" from="-13420648#2" to="13283406#5"/>
    <trip id="veh172" type="veh_passenger" depart="297.42" departLane="best" from="405328944#2" to="-405356956"/>
    <trip id="veh173" type="veh_passenger" depart="299.15" departLane="best" from="-167077299#3" to="13398383#11"/>
    <trip id="veh174" type="veh_passenger" depart="300.88" departLane="best" from="-629454876#0" to="-1365508530#5"/>
    <trip id="veh175" type="veh_passenger" depart="302.61" departLane="best" from="405356660#3" to="405328935#0"/>
    <trip id="veh176" type="veh_passenger" depart="304.34" departLane="best" from="-1053007303#3" to="405356998"/>
    <trip id="veh177" type="veh_passenger" depart="306.07" departLane="best" from="13405538#12" to="405328982"/>
    <trip id="veh178" type="veh_passenger" depart="307.80" departLane="best" from="405329018#6" to="405328866#0"/>
    <trip id="veh179" type="veh_passenger" depart="309.53" departLane="best" departSpeed="max" from="-405367250" to="-13372156#12"/>
    <trip id="veh180" type="veh_passenger" depart="311.26" departLane="best" from="295700308#0" to="-405356989"/>
    <trip id="veh181" type="veh_passenger" depart="312.99" departLane="best" from="405356849#2" to="405356824#2"/>
    <trip id="veh182" type="veh_passenger" depart="314.72" departLane="best" from="405328929" to="-405356857#1"/>
    <trip id="veh183" type="veh_passenger" depart="316.45" departLane="best" from="-405356845#0" to="1192252540#2"/>
    <trip id="veh184" type="veh_passenger" depart="318.17" departLane="best" from="1036516251" to="405356851#1"/>
    <trip id="veh185" type="veh_passenger" depart="319.90" departLane="best" from="-13459586#14" to="1266676371#1"/>
    <trip id="veh186" type="veh_passenger" depart="321.63" departLane="best" from="405373617" to="405328884#0"/>
    <trip id="veh187" type="veh_passenger" depart="323.36" departLane="best" from="405356912" to="201028261#1"/>
    <trip id="veh188" type="veh_passenger" depart="325.09" departLane="best" from="-405356824#0" to="13439442#0"/>
    <trip id="veh189" type="veh_passenger" depart="326.82" departLane="best" from="1036516251" to="405356834"/>
    <trip id="veh190" type="veh_passenger" depart="328.55" departLane="best" from="1079451549#0" to="156415827"/>
    <trip id="veh191" type="veh_passenger" depart="330.28" departLane="best" from="-246748567#12" to="13313713#20"/>
    <trip id="veh192" type="veh_passenger" depart="332.01" departLane="best" from="1255942144#0" to="405328925#0"/>
    <trip id="veh193" type="veh_passenger" depart="333.74" departLane="best" from="13309909#12" to="405356948"/>
    <trip id="veh194" type="veh_passenger" depart="335.47" departLane="best" from="405356695#0" to="-246748567#2"/>
    <trip id="veh195" type="veh_passenger" depart="337.20" departLane="best" from="-13386563#2" to="13398385#0"/>
    <trip id="veh196" type="veh_passenger" depart="338.93" departLane="best" from="203028801" to="-405356993#1"/>
    <trip id="veh197" type="veh_passenger" depart="340.65" departLane="best" from="405356716" to="405356660#4"/>
    <trip id="veh198" type="veh_passenger" depart="342.38" departLane="best" from="390794826#2" to="-405356513"/>
    <trip id="veh199" type="veh_passenger" depart="344.11" departLane="best" from="-405356508#2" to="13341745#4"/>
    <trip id="veh200" type="veh_passenger" depart="345.84" departLane="best" from="405356788#0" to="-13372156#9"/>
    <trip id="veh201" type="veh_passenger" depart="347.57" departLane="best" from="1057089476" to="203028875#1"/>
    <trip id="veh202" type="veh_passenger" depart="349.30" departLane="best" from="-390794826#1" to="405328920"/>
    <trip id="veh203" type="veh_passenger" depart="351.03" departLane="best" from="13341745#8" to="-405356682"/>
    <trip id="veh204" type="veh_passenger" depart="352.76" departLane="best" from="246748567#18" to="-1255942144#1"/>
    <trip id="veh205" type="veh_passenger" depart="354.49" departLane="best" from="-405356552#0" to="405356683#5"/>
    <trip id="veh206" type="veh_passenger" depart="356.22" departLane="best" departSpeed="max" from="-13419962#1" to="129703008"/>
    <trip id="veh207" type="veh_passenger" depart="357.95" departLane="best" from="-203028817#1" to="607202793"/>
    <trip id="veh208" type="veh_passenger" depart="359.68" departLane="best" from="13372156#2" to="-13341754#5"/>
    <trip id="veh209" type="veh_passenger" depart="361.40" departLane="best" from="-405356552#1" to="405356824#2"/>
    <trip id="veh210" type="veh_passenger" depart="363.13" departLane="best" from="13283381#2" to="405356706#0"/>
    <trip id="veh211" type="veh_passenger" depart="364.86" departLane="best" from="374529975#1" to="733226296#9"/>
    <trip id="veh212" type="veh_passenger" depart="366.59" departLane="best" from="156415834#7" to="47245142#0"/>
    <trip id="veh213" type="veh_passenger" depart="368.32" departLane="best" from="-405356878#0" to="-185937914#3"/>
    <trip id="veh214" type="veh_passenger" depart="370.05" departLane="best" from="405328928#0" to="13385884#3"/>
    <trip id="veh215" type="veh_passenger" depart="371.78" departLane="best" from="405356737#0" to="13437292#1"/>
    <trip id="veh216" type="veh_passenger" depart="373.51" departLane="best" from="405356901" to="405356606"/>
    <trip id="veh217" type="veh_passenger" depart="375.24" departLane="best" from="13309909#4" to="-405356695#1"/>
    <trip id="veh218" type="veh_passenger" depart="376.97" departLane="best" from="405356665" to="13405538#12"/>
    <trip id="veh219" type="veh_passenger" depart="378.70" departLane="best" from="-185735869" to="405356788#0"/>
    <trip id="veh220" type="veh_passenger" depart="380.43" departLane="best" from="-13372156#7" to="405356827#1"/>
    <trip id="veh221" type="veh_passenger" depart="382.16" departLane="best" from="-405356686" to="405356970"/>
    <trip id="veh222" type="veh_passenger" depart="383.88" departLane="best" from="-405328924#2" to="-405328917"/>
    <trip id="veh223" type="veh_passenger" depart="385.61" departLane="best" from="405328912" to="-13360415#9"/>
    <trip id="veh224" type="veh_passenger" depart="387.34" departLane="best" departSpeed="max" from="1053007302" to="13435616#13"/>
    <trip id="veh225" type="veh_passenger" depart="389.07" departLane="best" from="1057089477#2" to="-405328917"/>
    <trip id="veh226" type="veh_passenger" depart="390.80" departLane="best" from="1057089480#0" to="405356962"/>
    <trip id="veh227" type="veh_passenger" depart="392.53" departLane="best" from="1356842338" to="405328919"/>
    <trip id="veh228" type="veh_passenger" depart="394.26" departLane="best" from="405356808#1" to="-405356683#1"/>
    <trip id="veh229" type="veh_passenger" depart="395.99" departLane="best" from="561836207" to="-1255942144#3"/>
    <trip id="veh230" type="veh_passenger" depart="397.72" departLane="best" from="405356965" to="405356665"/>
    <trip id="veh231" type="veh_passenger" depart="399.45" departLane="best" from="-405356789#8" to="-561836207"/>
    <trip id="veh232" type="veh_passenger" depart="401.18" departLane="best" from="1057089479" to="405356622#1"/>
    <trip id="veh233" type="veh_passenger" depart="402.91" departLane="best" from="13415299#0" to="173415948#2"/>
    <trip id="veh234" type="veh_passenger" depart="404.63" departLane="best" from="-405328910" to="405329041#0"/>
    <trip id="veh235" type="veh_passenger" depart="406.36" departLane="best" departSpeed="max" from="119259554" to="13309909#0"/>
    <trip id="veh236" type="veh_passenger" depart="408.09" departLane="best" from="-405356962" to="405328888"/>
    <trip id="veh237" type="veh_passenger" depart="409.82" departLane="best" departSpeed="max" from="1053007302" to="405356959"/>
    <trip id="veh238" type="veh_passenger" depart="411.55" departLane="best" from="13296982" to="-13471353#3"/>
    <trip id="veh239" type="veh_passenger" depart="413.28" departLane="best" from="-173415948#3" to="13295841#0"/>