<additional>
    <inductionLoop id="det_-101001199_0" lane="-101001199_0" pos="71.56" freq="60" file="detector_output.xml"/>
    <inductionLoop id="det_-1020207053#1_0" lane="-1020207053#1_0" pos="77.7" freq="60" file="detector_output.xml"/>
    <inductionLoop id="det_-1020207054#1_0" lane="-1020207054#1_0" pos="15.379999999999999" freq="60" file="detector_output.xml"/>
    <inductionLoop id="det_-1020207054#1_1" lane="-1020207054#1_1" pos="15.379999999999999" freq="60" file="detector_output.xml"/>
    <inductionLoop id="det_-1020207054#1_2" lane="-1020207054#1_2" pos="15.379999999999999" freq="60" file="detector_output.xml"/>
    <inductionLoop id="det_-13254895#1_0" lane="-13254895#1_0" pos="93.04" freq="60" file="detector_output.xml"/>
    <inductionLoop id="det_-13315124#1_0" lane="-13315124#1_0" pos="32.57" freq="60" file="detector_output.xml"/>
    <inductionLoop id="det_-13383988#1_0" lane="-13383988#1_0" pos="54.17" freq="60" file="detector_output.xml"/>
    <inductionLoop id="det_-13399210#34_0" lane="-13399210#34_0" pos="21.52" freq="60" file="detector_output.xml"/>
    <inductionLoop id="det_-13399210#79_0" lane="-13399210#79_0" pos="41.98" freq="60" file="detector_output.xml"/>
    <inductionLoop id="det_-1351507112#1_0" lane="-1351507112#1_0" pos="4.23" freq="60" file="detector_output.xml"/>
    <inductionLoop id="det_-1351507112#1_1" lane="-1351507112#1_1" pos="4.23" freq="60" file="detector_output.xml"/>
    <inductionLoop id="det_-1355191058#1_0" lane="-1355191058#1_0" pos="47.18" freq="60" file="detector_output.xml"/>
    <inductionLoop id="det_-1355191058#1_1" lane="-1355191058#1_1" pos="47.18" freq="60" file="detector_output.xml"/>
    <inductionLoop id="det_-405274909#1_0" lane="-405274909#1_0" pos="11.21" freq="60" file="detector_output.xml"/>
    <inductionLoop id="det_-405274909#1_1" lane="-405274909#1_1" pos="11.21" freq="60" file="detector_output.xml"/>
    <inductionLoop id="det_-405274909#1_2" lane="-405274909#1_2" pos="11.21" freq="60" file="detector_output.xml"/>
    <inductionLoop id="det_-405325366#1_0" lane="-405325366#1_0" pos="6.63" freq="60" file="detector_output.xml"/>
    <inductionLoop id="det_-405325366#1_1" lane="-405325366#1_1" pos="6.63" freq="60" file="detector_output.xml"/>
    <inductionLoop id="det_-405325366#1_2" lane="-405325366#1_2" pos="6.63" freq="60" file="detector_output.xml"/>
    <inductionLoop id="det_-405326229#1_0" lane="-405326229#1_0" pos="20.01" freq="60" file="detector_output.xml"/>
    <inductionLoop id="det_-406209733#1_0" lane="-406209733#1_0" pos="28.34" freq="60" file="detector_output.xml"/>
    <inductionLoop id="det_-406209733#1_1" lane="-406209733#1_1" pos="28.34" freq="60" file="detector_output.xml"/>
    <inductionLoop id="det_-406209733#1_2" lane="-406209733#1_2" pos="28.34" freq="60" file="detector_output.xml"/>
    <inductionLoop id="det_-406209736#1_0" lane="-406209736#1_0" pos="10.05" freq="60" file="detector_output.xml"/>
    <inductionLoop id="det_-406209736#1_1" lane="-406209736#1_1" pos="10.05" freq="60" file="detector_output.xml"/>
    <inductionLoop id="det_-406209736#1_2" lane="-406209736#1_2" pos="10.05" freq="60" file="detector_output.xml"/>
    <inductionLoop id="det_-406215681#1_0" lane="-406215681#1_0" pos="7.24" freq="60" file="detector_output.xml"/>
    <inductionLoop id="det_-406215681#1_1" lane="-406215681#1_1" pos="7.24" freq="60" file="detector_output.xml"/>
    <inductionLoop id="det_-406215681#1_2" lane="-406215681#1_2" pos="7.24" freq="60" file="detector_output.xml"/>
    <inductionLoop id="det_-406215681#1_3" lane="-406215681#1_3" pos="7.24" freq="60" file="detector_output.xml"/>
    <inductionLoop id="det_-406219010#0_0" lane="-406219010#0_0" pos="74.69" freq="60" file="detector_output.xml"/>
    <inductionLoop id="det_-406219010#0_1" lane="-406219010#0_1" pos="74.69" freq="60" file="detector_output.xml"/>
    <inductionLoop id="det_-406219010#0_2" lane="-406219010#0_2" pos="74.69" freq="60" file="detector_output.xml"/>
    <inductionLoop id="det_-414764047_0" lane="-414764047_0" pos="12.57" freq="60" file="detector_output.xml"/>
    <inductionLoop id="det_-569214584#13_0" lane="-569214584#13_0" pos="57.41" freq="60" file="detector_output.xml"/>
    <inductionLoop id="det_-716719002_0" lane="-716719002_0" pos="113.06" freq="60" file="detector_output.xml"/>
    <inductionLoop id="det_-72011935#0_0" lane="-72011935#0_0" pos="44.04" freq="60" file="detector_output.xml"/>
    <inductionLoop id="det_-72011935#0_1" lane="-72011935#0_1" pos="44.04" freq="60" file="detector_output.xml"/>
    <inductionLoop id="det_-72011935#0_2" lane="-72011935#0_2" pos="44.04" freq="60" file="detector_output.xml"/>
    <inductionLoop id="det_101001204_0" lane="101001204_0" pos="137.66" freq="60" file="detector_output.xml"/>
    <inductionLoop id="det_101001204_1" lane="101001204_1" pos="137.66" freq="60" file="detector_output.xml"/>
    <inductionLoop id="det_1036556855_0" lane="1036556855_0" pos="35.1" freq="60" file="detector_output.xml"/>
    <inductionLoop id="det_1036556855_1" lane="1036556855_1" pos="35.1" freq="60" file="detector_output.xml"/>
    <inductionLoop id="det_1036556855_2" lane="1036556855_2" pos="35.1" freq="60" file="detector_output.xml"/>
    <inductionLoop id="det_1151926182#2_0" lane="1151926182#2_0" pos="144.16" freq="60" file="detector_output.xml"/>
    <inductionLoop id="det_1250927129#0_0" lane="1250927129#0_0" pos="19.74" freq="60" file="detector_output.xml"/>
    <inductionLoop id="det_1250927129#0_1" lane="1250927129#0_1" pos="19.74" freq="60" file="detector_output.xml"/>
    <inductionLoop id="det_1250927129#0_2" lane="1250927129#0_2" pos="19.74" freq="60" file="detector_output.xml"/>
    <inductionLoop id="det_13399210#33_0" lane="13399210#33_0" pos="23.22" freq="60" file="detector_output.xml"/>
    <inductionLoop id="det_13399210#78_0" lane="13399210#78_0" pos="34.98" freq="60" file="detector_output.xml"/>
    <inductionLoop id="det_13420405#9_0" lane="13420405#9_0" pos="63.260000000000005" freq="60" file="detector_output.xml"/>
    <inductionLoop id="det_1351507113#0_0" lane="1351507113#0_0" pos="14.14" freq="60" file="detector_output.xml"/>
    <inductionLoop id="det_1351507113#0_1" lane="1351507113#0_1" pos="14.14" freq="60" file="detector_output.xml"/>
    <inductionLoop id="det_1351507116#0_0" lane="1351507116#0_0" pos="22.82" freq="60" file="detector_output.xml"/>
    <inductionLoop id="det_1351507116#0_1" lane="1351507116#0_1" pos="22.82" freq="60" file="detector_output.xml"/>
    <inductionLoop id="det_1351507116#0_2" lane="1351507116#0_2" pos="22.82" freq="60" file="detector_output.xml"/>
    <inductionLoop id="det_1355191059#0_0" lane="1355191059#0_0" pos="8.34" freq="60" file="detector_output.xml"/>
    <inductionLoop id="det_1355191059#0_1" lane="1355191059#0_1" pos="8.34" freq="60" file="detector_output.xml"/>
    <inductionLoop id="det_334631554#0_0" lane="334631554#0_0" pos="282.72" freq="60" file="detector_output.xml"/>
    <inductionLoop id="det_334631554#0_1" lane="334631554#0_1" pos="282.72" freq="60" file="detector_output.xml"/>
    <inductionLoop id="det_334631554#0_2" lane="334631554#0_2" pos="282.72" freq="60" file="detector_output.xml"/>
    <inductionLoop id="det_334631554#0_3" lane="334631554#0_3" pos="282.72" freq="60" file="detector_output.xml"/>
    <inductionLoop id="det_390810266#0_0" lane="390810266#0_0" pos="10.14" freq="60" file="detector_output.xml"/>
    <inductionLoop id="det_390810266#0_1" lane="390810266#0_1" pos="10.14" freq="60" file="detector_output.xml"/>
    <inductionLoop id="det_390810266#0_2" lane="390810266#0_2" pos="10.14" freq="60" file="detector_output.xml"/>
    <inductionLoop id="det_390810266#0_3" lane="390810266#0_3" pos="10.14" freq="60" file="detector_output.xml"/>
    <inductionLoop id="det_405325371#0_0" lane="405325371#0_0" pos="16.36" freq="60" file="detector_output.xml"/>
    <inductionLoop id="det_405325371#0_1" lane="405325371#0_1" pos="16.36" freq="60" file="detector_output.xml"/>
    <inductionLoop id="det_405325371#0_2" lane="405325371#0_2" pos="16.36" freq="60" file="detector_output.xml"/>
    <inductionLoop id="det_405325373#0_0" lane="405325373#0_0" pos="15.030000000000001" freq="60" file="detector_output.xml"/>
    <inductionLoop id="det_405325373#0_1" lane="405325373#0_1" pos="15.030000000000001" freq="60" file="detector_output.xml"/>
    <inductionLoop id="det_405325373#0_2" lane="405325373#0_2" pos="15.030000000000001" freq="60" file="detector_output.xml"/>
    <inductionLoop id="det_405326228#0_0" lane="405326228#0_0" pos="21.62" freq="60" file="detector_output.xml"/>
    <inductionLoop id="det_405326228#0_1" lane="405326228#0_1" pos="21.62" freq="60" file="detector_output.xml"/>
    <inductionLoop id="det_405326228#0_2" lane="405326228#0_2" pos="21.62" freq="60" file="detector_output.xml"/>
    <inductionLoop id="det_405326237#0_0" lane="405326237#0_0" pos="22.92" freq="60" file="detector_output.xml"/>
    <inductionLoop id="det_405326247#0_0" lane="405326247#0_0" pos="19.7" freq="60" file="detector_output.xml"/>
    <inductionLoop id="det_405326247#0_1" lane="405326247#0_1" pos="19.7" freq="60" file="detector_output.xml"/>
    <inductionLoop id="det_405326247#0_2" lane="405326247#0_2" pos="19.7" freq="60" file="detector_output.xml"/>
    <inductionLoop id="det_405327135#0_0" lane="405327135#0_0" pos="10.1" freq="60" file="detector_output.xml"/>
    <inductionLoop id="det_405327135#0_1" lane="405327135#0_1" pos="10.1" freq="60" file="detector_output.xml"/>
    <inductionLoop id="det_405327135#0_2" lane="405327135#0_2" pos="10.1" freq="60" file="detector_output.xml"/>
    <inductionLoop id="det_405327141#0_0" lane="405327141#0_0" pos="15.73" freq="60" file="detector_output.xml"/>
    <inductionLoop id="det_405327141#0_1" lane="405327141#0_1" pos="15.73" freq="60" file="detector_output.xml"/>
    <inductionLoop id="det_405327141#0_2" lane="405327141#0_2" pos="15.73" freq="60" file="detector_output.xml"/>
    <inductionLoop id="det_405327141#0_3" lane="405327141#0_3" pos="15.73" freq="60" file="detector_output.xml"/>
    <inductionLoop id="det_405543907#3_0" lane="405543907#3_0" pos="53.7" freq="60" file="detector_output.xml"/>
    <inductionLoop id="det_405543907#3_1" lane="405543907#3_1" pos="53.7" freq="60" file="detector_output.xml"/>
    <inductionLoop id="det_405543907#3_2" lane="405543907#3_2" pos="53.7" freq="60" file="detector_output.xml"/>
    <inductionLoop id="det_405546347#0_0" lane="405546347#0_0" pos="4.09" freq="60" file="detector_output.xml"/>
    <inductionLoop id="det_405546347#0_1" lane="405546347#0_1" pos="4.09" freq="60" file="detector_output.xml"/>
    <inductionLoop id="det_405546347#0_2" lane="405546347#0_2" pos="4.09" freq="60" file="detector_output.xml"/>
    <inductionLoop id="det_405546347#0_3" lane="405546347#0_3" pos="4.09" freq="60" file="detector_output.xml"/>
    <inductionLoop id="det_406209731#1_0" lane="406209731#1_0" pos="6.71" freq="60" file="detector_output.xml"/>
    <inductionLoop id="det_406209731#1_1" lane="406209731#1_1" pos="6.71" freq="60" file="detector_output.xml"/>
    <inductionLoop id="det_406209731#1_2" lane="406209731#1_2" pos="6.71" freq="60" file="detector_output.xml"/>
    <inductionLoop id="det_406215655#1_0" lane="406215655#1_0" pos="7.4" freq="60" file="detector_output.xml"/>
    <inductionLoop id="det_406215655#1_1" lane="406215655#1_1" pos="7.4" freq="60" file="detector_output.xml"/>
    <inductionLoop id="det_406215655#1_2" lane="406215655#1_2" pos="7.4" freq="60" file="detector_output.xml"/>
    <inductionLoop id="det_406219012_0" lane="406219012_0" pos="26.5" freq="60" file="detector_output.xml"/>
    <inductionLoop id="det_406219012_1" lane="406219012_1" pos="26.5" freq="60" file="detector_output.xml"/>
    <inductionLoop id="det_406219012_2" lane="406219012_2" pos="26.5" freq="60" file="detector_output.xml"/>
    <inductionLoop id="det_569214584#10_0" lane="569214584#10_0" pos="48.7" freq="60" file="detector_output.xml"/>
    <inductionLoop id="det_59712276#3_0" lane="59712276#3_0" pos="74.91" freq="60" file="detector_output.xml"/>
    <inductionLoop id="det_59712276#3_1" lane="59712276#3_1" pos="74.91" freq="60" file="detector_output.xml"/>
    <inductionLoop id="det_59712276#3_2" lane="59712276#3_2" pos="74.91" freq="60" file="detector_output.xml"/>
    <inductionLoop id="det_59712276#3_3" lane="59712276#3_3" pos="74.91" freq="60" file="detector_output.xml"/>
    <inductionLoop id="det_59712285#0_0" lane="59712285#0_0" pos="77.82" freq="60" file="detector_output.xml"/>
    <inductionLoop id="det_59712285#0_1" lane="59712285#0_1" pos="77.82" freq="60" file="detector_output.xml"/>
    <inductionLoop id="det_598628202#9_0" lane="598628202#9_0" pos="137.16" freq="60" file="detector_output.xml"/>
    <inductionLoop id="det_604060294_0" lane="604060294_0" pos="175.07" freq="60" file="detector_output.xml"/>
    <inductionLoop id="det_604060294_1" lane="604060294_1" pos="175.07" freq="60" file="detector_output.xml"/>
    <inductionLoop id="det_604060294_2" lane="604060294_2" pos="175.07" freq="60" file="detector_output.xml"/>
    <inductionLoop id="det_604060294_3" lane="604060294_3" pos="175.07" freq="60" file="detector_output.xml"/>
    <inductionLoop id="det_604060296#1_0" lane="604060296#1_0" pos="46.07" freq="60" file="detector_output.xml"/>
    <inductionLoop id="det_604060296#1_1" lane="604060296#1_1" pos="46.07" freq="60" file="detector_output.xml"/>
    <inductionLoop id="det_604060296#1_2" lane="604060296#1_2" pos="46.07" freq="60" file="detector_output.xml"/>
    <inductionLoop id="det_604060297_0" lane="604060297_0" pos="67.77" freq="60" file="detector_output.xml"/>
    <inductionLoop id="det_649530284#0_0" lane="649530284#0_0" pos="10.34" freq="60" file="detector_output.xml"/>
    <inductionLoop id="det_649530284#0_1" lane="649530284#0_1" pos="10.34" freq="60" file="detector_output.xml"/>
</additional>
