<?xml version="1.0" encoding="UTF-8"?>

<!-- generated on 2025-05-04 00:30:40.535225 by osmWebWizard.py UNKNOWN
<configuration>
    <net-file value="/Users/nedasarbalavandeymir/Sumo/2025-05-04-00-29-58/osm.net.xml.gz"/>
    <output-trip-file value="/Users/nedasarbalavandeymir/Sumo/2025-05-04-00-29-58/osm.truck.trips.xml"/>
    <route-file value="/Users/nedasarbalavandeymir/Sumo/2025-05-04-00-29-58/osm.truck.rou.xml"/>
    <prefix value="truck"/>
    <trip-attributes value="departLane=&quot;best&quot;"/>
    <fringe-start-attributes value="departSpeed=&quot;max&quot;"/>
    <vehicle-class value="truck"/>
    <fringe-factor value="5"/>
    <vclass value="truck"/>
    <via-edge-types value="highway.motorway,highway.motorway_link,highway.trunk_link,highway.primary_link,highway.secondary_link,highway.tertiary_link"/>
    <min-distance value="600.0"/>
    <min-distance.fringe value="10.0"/>
    <remove-loops value="True"/>
    <validate value="True"/>
    <insertion-density value="8.0"/>
</configuration>
-->

<!-- generated on 2025-05-04 00:30:40 by Eclipse SUMO duarouter Version 1.22.0
<duarouterConfiguration xmlns:xsi="http://www.w3.org/2001/XMLSchema-instance" xsi:noNamespaceSchemaLocation="http://sumo.dlr.de/xsd/duarouterConfiguration.xsd">

    <input>
        <net-file value="/Users/nedasarbalavandeymir/Sumo/2025-05-04-00-29-58/osm.net.xml.gz"/>
        <route-files value="/Users/nedasarbalavandeymir/Sumo/2025-05-04-00-29-58/osm.truck.trips.xml"/>
    </input>

    <output>
        <output-file value="/Users/nedasarbalavandeymir/Sumo/2025-05-04-00-29-58/osm.truck.trips.xml.tmp"/>
        <alternatives-output value="NUL"/>
        <write-trips value="true"/>
    </output>

    <processing>
        <remove-loops value="true"/>
    </processing>

    <time>
        <begin value="0.0"/>
        <end value="3600.0"/>
    </time>

    <report>
        <no-warnings value="true"/>
        <ignore-errors value="true"/>
        <no-step-log value="true"/>
    </report>

</duarouterConfiguration>
-->

<routes xmlns:xsi="http://www.w3.org/2001/XMLSchema-instance" xsi:noNamespaceSchemaLocation="http://sumo.dlr.de/xsd/routes_file.xsd">
    <vType id="truck_truck" vClass="truck"/>
    <trip id="truck0" type="truck_truck" depart="0.00" departLane="best" from="13399210#62" to="-1151926182#0"/>
    <trip id="truck1" type="truck_truck" depart="7.56" departLane="best" from="-13471953#1" to="-13439862"/>
    <trip id="truck2" type="truck_truck" depart="15.12" departLane="best" departSpeed="max" from="24672459#0" to="13417734#3"/>
    <trip id="truck3" type="truck_truck" depart="22.68" departLane="best" from="4581191#0" to="-13364064#26"/>
    <trip id="truck4" type="truck_truck" depart="30.24" departLane="best" from="-72011935#1" to="-1278736020#1"/>
    <trip id="truck5" type="truck_truck" depart="37.81" departLane="best" from="-13407681#1" to="13387500"/>
    <trip id="truck6" type="truck_truck" depart="45.37" departLane="best" from="405544795#0" to="-1020207053#12"/>
    <trip id="truck7" type="truck_truck" depart="52.93" departLane="best" from="405543907#2" to="13452744"/>
    <trip id="truck8" type="truck_truck" depart="60.49" departLane="best" departSpeed="max" from="406215616#0" to="-13397196#7"/>
    <trip id="truck9" type="truck_truck" depart="68.05" departLane="best" from="405543907#3" to="1351507114#1"/>
    <trip id="truck10" type="truck_truck" depart="75.61" departLane="best" from="13364064#19" to="715719943#1"/>
    <trip id="truck11" type="truck_truck" depart="83.17" departLane="best" departSpeed="max" from="-466737068" to="13364064#33"/>
    <trip id="truck12" type="truck_truck" depart="90.73" departLane="best" departSpeed="max" from="406209727" to="13399210#25"/>
    <trip id="truck13" type="truck_truck" depart="98.29" departLane="best" from="-13359029#3" to="-13462346#0"/>
    <trip id="truck14" type="truck_truck" depart="105.86" departLane="best" from="-13364064#3" to="-405274909#1"/>
    <trip id="truck15" type="truck_truck" depart="113.42" departLane="best" from="13399210#56" to="46967216#1"/>
    <trip id="truck16" type="truck_truck" depart="120.98" departLane="best" departSpeed="max" from="-13469099" to="-59712281#10"/>
    <trip id="truck17" type="truck_truck" depart="128.54" departLane="best" from="-13399210#77" to="-13399210#13"/>
    <trip id="truck18" type="truck_truck" depart="136.10" departLane="best" from="13399210#27" to="1351507114#0"/>
    <trip id="truck19" type="truck_truck" depart="143.66" departLane="best" from="13399210#17" to="-59712281#1"/>
    <trip id="truck21" type="truck_truck" depart="158.78" departLane="best" from="13417734#6" to="-1278736020#2"/>
    <trip id="truck22" type="truck_truck" depart="166.34" departLane="best" from="-405325368#4" to="1355191056#10"/>
    <trip id="truck23" type="truck_truck" depart="173.90" departLane="best" from="13399210#9" to="-59712281#5"/>
    <trip id="truck24" type="truck_truck" depart="181.47" departLane="best" departSpeed="max" from="406219019" to="-406209724"/>
    <trip id="truck25" type="truck_truck" depart="189.03" departLane="best" from="-13399210#88" to="-647395530"/>
    <trip id="truck26" type="truck_truck" depart="196.59" departLane="best" from="59712267#5" to="-1051736210#0"/>
    <trip id="truck27" type="truck_truck" depart="204.15" departLane="best" from="-59712281#2" to="-13420405#5"/>
    <trip id="truck28" type="truck_truck" depart="211.71" departLane="best" from="982784187#0" to="13319605"/>
    <trip id="truck29" type="truck_truck" depart="219.27" departLane="best" from="-13364064#17" to="-13298805#0"/>
    <trip id="truck30" type="truck_truck" depart="226.83" departLane="best" from="-13364064#41" to="-13399210#37"/>
    <trip id="truck31" type="truck_truck" depart="234.39" departLane="best" departSpeed="max" from="405326237#0" to="-72011936#2"/>
    <trip id="truck32" type="truck_truck" depart="241.95" departLane="best" from="723822806" to="13359029#4"/>
    <trip id="truck33" type="truck_truck" depart="249.52" departLane="best" from="-1020207053#7" to="13471148#0"/>
    <trip id="truck34" type="truck_truck" depart="257.08" departLane="best" departSpeed="max" from="13439862" to="13364064#14"/>
    <trip id="truck35" type="truck_truck" depart="264.64" departLane="best" departSpeed="max" from="-13469099" to="-13399210#59"/>
    <trip id="truck36" type="truck_truck" depart="272.20" departLane="best" from="1020207053#2" to="604060296#6"/>
    <trip id="truck37" type="truck_truck" depart="279.76" departLane="best" from="406219017#0" to="-1351507116#1"/>
    <trip id="truck38" type="truck_truck" depart="287.32" departLane="best" from="13298805#2" to="-13399210#56"/>
    <trip id="truck39" type="truck_truck" depart="294.88" departLane="best" from="59712267#1" to="406215669"/>
    <trip id="truck40" type="truck_truck" depart="302.44" departLane="best" from="405325369#14" to="13359029#4"/>
    <trip id="truck41" type="truck_truck" depart="310.00" departLane="best" from="1010391346#0" to="-406209733#1"/>
    <trip id="truck42" type="truck_truck" depart="317.57" departLane="best" from="1051736210#4" to="59712271#4"/>
    <trip id="truck43" type="truck_truck" depart="325.13" departLane="best" departSpeed="max" from="406219019" to="405544796#7-AddedOffRampEdge"/>
    <trip id="truck44" type="truck_truck" depart="332.69" departLane="best" from="-405274916#2" to="-13315124#9"/>
    <trip id="truck45" type="truck_truck" depart="340.25" departLane="best" from="-13364064#10" to="13254895#8"/>
    <trip id="truck46" type="truck_truck" depart="347.81" departLane="best" from="13329509#1" to="29611124#1"/>
    <trip id="truck47" type="truck_truck" depart="355.37" departLane="best" from="1151919007#1" to="13364064#31"/>
    <trip id="truck48" type="truck_truck" depart="362.93" departLane="best" departSpeed="max" from="-13466205" to="406215678#1"/>
    <trip id="truck49" type="truck_truck" depart="370.49" departLane="best" from="-72011935#10" to="-13417734#3"/>
    <trip id="truck50" type="truck_truck" depart="378.05" departLane="best" from="-13399210#75" to="-405326295#0"/>
    <trip id="truck51" type="truck_truck" depart="385.61" departLane="best" from="-1151919007#0" to="13399210#74"/>
    <trip id="truck52" type="truck_truck" depart="393.18" departLane="best" from="-13364068#13" to="-13439862"/>
    <trip id="truck53" type="truck_truck" depart="400.74" departLane="best" from="406209724" to="13383988#9"/>
    <trip id="truck54" type="truck_truck" depart="408.30" departLane="best" departSpeed="max" from="-13344408" to="-13399210#42"/>
    <trip id="truck55" type="truck_truck" depart="415.86" departLane="best" from="13417734#5" to="46967216#5"/>
    <trip id="truck56" type="truck_truck" depart="423.42" departLane="best" from="406215639#0" to="13359029#1"/>
    <trip id="truck57" type="truck_truck" depart="430.98" departLane="best" departSpeed="max" from="-13448910#2" to="13406623#1"/>
    <trip id="truck58" type="truck_truck" depart="438.54" departLane="best" from="-13471953#0" to="-13383988#9"/>
    <trip id="truck59" type="truck_truck" depart="446.10" departLane="best" from="1051736210#5" to="405325364"/>
    <trip id="truck60" type="truck_truck" depart="453.66" departLane="best" from="405544792#0" to="13399210#76"/>
    <trip id="truck61" type="truck_truck" depart="461.23" departLane="best" from="-13364064#24" to="-723822806"/>
    <trip id="truck62" type="truck_truck" depart="468.79" departLane="best" from="-72011935#2" to="1051736210#9"/>
    <trip id="truck63" type="truck_truck" depart="476.35" departLane="best" from="-13399210#56" to="1029507042"/>
    <trip id="truck64" type="truck_truck" depart="483.91" departLane="best" from="-72011935#1" to="-405274916#0"/>
    <trip id="truck65" type="truck_truck" depart="491.47" departLane="best" departSpeed="max" from="-13453259" to="59712270#0"/>
    <trip id="truck67" type="truck_truck" depart="506.59" departLane="best" from="-715719943#0" to="59712271#0"/>
    <trip id="truck68" type="truck_truck" depart="514.15" departLane="best" from="1278736020#4" to="-13417734#6"/>
    <trip id="truck69" type="truck_truck" depart="521.71" departLane="best" departSpeed="max" from="-13466205" to="-406217835"/>
    <trip id="truck70" type="truck_truck" depart="529.28" departLane="best" from="1020207053#5" to="-72011936#3"/>
    <trip id="truck71" type="truck_truck" depart="536.84" departLane="best" from="647395502" to="723822806"/>
    <trip id="truck72" type="truck_truck" depart="544.40" departLane="best" from="-13364064#44" to="13469099"/>
    <trip id="truck73" type="truck_truck" depart="551.96" departLane="best" from="-715719943#0" to="-13372142#0"/>
    <trip id="truck74" type="truck_truck" depart="559.52" departLane="best" from="13364064#26" to="-1355191059#1"/>
    <trip id="truck75" type="truck_truck" depart="567.08" departLane="best" from="-13315124#8" to="13383988#12"/>
    <trip id="truck77" type="truck_truck" depart="582.20" departLane="best" from="-13399210#10" to="647395502"/>
    <trip id="truck78" type="truck_truck" depart="589.76" departLane="best" from="-13359029#3" to="-13399210#7"/>
    <trip id="truck79" type="truck_truck" depart="597.33" departLane="best" from="13420405#6" to="-13372142#1"/>
    <trip id="truck80" type="truck_truck" depart="604.89" departLane="best" from="414764044#2" to="-13466211"/>
    <trip id="truck81" type="truck_truck" depart="612.45" departLane="best" departSpeed="max" from="13397196#0" to="-13399210#26"/>
    <trip id="truck82" type="truck_truck" depart="620.01" departLane="best" from="-690987761" to="13383988#12"/>
    <trip id="truck83" type="truck_truck" depart="627.57" departLane="best" departSpeed="max" from="-13448910#2" to="-647395530"/>
    <trip id="truck84" type="truck_truck" depart="635.13" departLane="best" from="13420405#0" to="-405325369#7"/>
    <trip id="truck85" type="truck_truck" depart="642.69" departLane="best" from="-405325368#5" to="24672464#2"/>
    <trip id="truck86" type="truck_truck" depart="650.25" departLane="best" departSpeed="max" from="-13344408" to="105057079#8"/>
    <trip id="truck87" type="truck_truck" depart="657.81" departLane="best" from="982784187#1" to="723822806"/>
    <trip id="truck88" type="truck_truck" depart="665.37" departLane="best" departSpeed="max" from="-13344408" to="-13417734#5"/>
    <trip id="truck89" type="truck_truck" depart="672.94" departLane="best" departSpeed="max" from="-13466205" to="59712276#1"/>
    <trip id="truck90" type="truck_truck" depart="680.50" departLane="best" from="406503365#1" to="-406219017#1"/>
    <trip id="truck91" type="truck_truck" depart="688.06" departLane="best" from="412227861" to="13399210#25"/>
    <trip id="truck92" type="truck_truck" depart="695.62" departLane="best" from="-406209732#0" to="-13462346#2"/>
    <trip id="truck93" type="truck_truck" depart="703.18" departLane="best" from="13399210#21" to="72011936#17"/>
    <trip id="truck94" type="truck_truck" depart="710.74" departLane="best" from="-13399210#86" to="1020207053#2"/>
    <trip id="truck95" type="truck_truck" depart="718.30" departLane="best" from="405544796#8" to="-405325369#6"/>
    <trip id="truck96" type="truck_truck" depart="725.86" departLane="best" from="13404578#6" to="59712281#14"/>
    <trip id="truck97" type="truck_truck" depart="733.42" departLane="best" from="-13383988#11" to="-13364068#6"/>
    <trip id="truck98" type="truck_truck" depart="740.99" departLane="best" from="13471148#2" to="13364064#48"/>
    <trip id="truck99" type="truck_truck" depart="748.55" departLane="best" from="-1351507114#5" to="-13404578#3"/>
    <trip id="truck100" type="truck_truck" depart="756.11" departLane="best" from="13399210#54" to="1355191054#0"/>
    <trip id="truck101" type="truck_truck" depart="763.67" departLane="best" departSpeed="max" from="406215616#0" to="-13364064#33"/>
    <trip id="truck102" type="truck_truck" depart="771.23" departLane="best" from="-72011935#2" to="-29610874"/>
    <trip id="truck103" type="truck_truck" depart="778.79" departLane="best" from="1010391346#5" to="334267468#5"/>
    <trip id="truck105" type="truck_truck" depart="793.91" departLane="best" from="-72011935#7" to="-1020207053#5"/>
    <trip id="truck106" type="truck_truck" depart="801.47" departLane="best" from="-13354140#2" to="406504587"/>
    <trip id="truck107" type="truck_truck" depart="809.04" departLane="best" from="569214584#0" to="13364064#25"/>
    <trip id="truck108" type="truck_truck" depart="816.60" departLane="best" from="406209732#1" to="-13383988#10"/>
    <trip id="truck109" type="truck_truck" depart="824.16" departLane="best" departSpeed="max" from="-13394800" to="13383988#12"/>
    <trip id="truck110" type="truck_truck" depart="831.72" departLane="best" from="-46967216#1" to="-13417734#1"/>
    <trip id="truck111" type="truck_truck" depart="839.28" departLane="best" from="405325369#2" to="-412227861"/>
    <trip id="truck112" type="truck_truck" depart="846.84" departLane="best" from="13397196#6" to="59712271#5"/>
    <trip id="truck113" type="truck_truck" depart="854.40" departLane="best" from="405544796#1" to="-406503366"/>
    <trip id="truck115" type="truck_truck" depart="869.52" departLane="best" from="-405325373#1" to="59712271#6"/>
    <trip id="truck116" type="truck_truck" depart="877.09" departLane="best" from="405544796#1" to="1355191056#1"/>
    <trip id="truck117" type="truck_truck" depart="884.65" departLane="best" from="405326228#0" to="-13364068#12"/>
    <trip id="truck119" type="truck_truck" depart="899.77" departLane="best" from="1036500992" to="-405325373#1"/>
    <trip id="truck120" type="truck_truck" depart="907.33" departLane="best" from="405326295#3" to="-13448910#0"/>
    <trip id="truck121" type="truck_truck" depart="914.89" departLane="best" from="-1151919007#1" to="-13399210#8"/>
    <trip id="truck122" type="truck_truck" depart="922.45" departLane="best" from="-405325369#8" to="406215644#1"/>
    <trip id="truck123" type="truck_truck" depart="930.01" departLane="best" from="690987758" to="-405274916#1"/>
    <trip id="truck124" type="truck_truck" depart="937.57" departLane="best" from="-13399210#67" to="-681872106#0"/>
    <trip id="truck125" type="truck_truck" depart="945.13" departLane="best" from="59712281#7" to="-13364068#6"/>
    <trip id="truck126" type="truck_truck" depart="952.70" departLane="best" from="649530284#0" to="1355191055#3"/>
    <trip id="truck127" type="truck_truck" depart="960.26" departLane="best" from="-13364064#4" to="-1010391346#0"/>
    <trip id="truck128" type="truck_truck" depart="967.82" departLane="best" from="-1355191056#4" to="-405326295#3"/>
    <trip id="truck129" type="truck_truck" depart="975.38" departLane="best" from="13399210#14" to="-13323113#2"/>
    <trip id="truck130" type="truck_truck" depart="982.94" departLane="best" from="-46967216#8" to="13364068#7"/>
    <trip id="truck131" type="truck_truck" depart="990.50" departLane="best" from="13364064#21" to="13469099"/>
    <trip id="truck132" type="truck_truck" depart="998.06" departLane="best" from="292716907" to="13413348"/>
    <trip id="truck133" type="truck_truck" depart="1005.62" departLane="best" from="13406623#0" to="406215610#1"/>
    <trip id="truck134" type="truck_truck" depart="1013.18" departLane="best" from="-405325368#2" to="406209733#0"/>
    <trip id="truck135" type="truck_truck" depart="1020.75" departLane="best" from="-405325364" to="-72011935#2"/>
    <trip id="truck136" type="truck_truck" depart="1028.31" departLane="best" from="-13364068#7" to="72011936#18"/>
    <trip id="truck137" type="truck_truck" depart="1035.87" departLane="best" from="46967216#7" to="-13399210#21"/>
    <trip id="truck138" type="truck_truck" depart="1043.43" departLane="best" from="-13399210#87" to="-1051736210#5"/>
    <trip id="truck139" type="truck_truck" depart="1050.99" departLane="best" from="-72011936#9" to="-13417734#6"/>
    <trip id="truck140" type="truck_truck" depart="1058.55" departLane="best" from="1051736210#5" to="466737068"/>
    <trip id="truck141" type="truck_truck" depart="1066.11" departLane="best" from="405327129#0" to="-13399210#42"/>
    <trip id="truck142" type="truck_truck" depart="1073.67" departLane="best" from="-13364064#0" to="13325540"/>
    <trip id="truck143" type="truck_truck" depart="1081.23" departLane="best" from="405545577#0" to="24672464#0"/>
    <trip id="truck144" type="truck_truck" depart="1088.80" departLane="best" from="-13399210#72" to="-1151919007#2"/>
    <trip id="truck145" type="truck_truck" depart="1096.36" departLane="best" from="406215616#1" to="-13364064#0"/>
    <trip id="truck146" type="truck_truck" depart="1103.92" departLane="best" from="649530284#0" to="-13399210#4"/>
    <trip id="truck147" type="truck_truck" depart="1111.48" departLane="best" from="-13399210#64" to="13452744"/>
    <trip id="truck148" type="truck_truck" depart="1119.04" departLane="best" from="13254895#9" to="-13466211"/>
    <trip id="truck149" type="truck_truck" depart="1126.60" departLane="best" from="-13399210#88" to="-1020207053#11"/>
    <trip id="truck150" type="truck_truck" depart="1134.16" departLane="best" from="-13364064#38" to="-72011936#7"/>
    <trip id="truck151" type="truck_truck" depart="1141.72" departLane="best" from="13329509#2" to="13310118"/>
    <trip id="truck152" type="truck_truck" depart="1149.28" departLane="best" from="13417734#1" to="72011936#18"/>
    <trip id="truck153" type="truck_truck" depart="1156.84" departLane="best" departSpeed="max" from="13397196#0" to="604060295#1"/>
    <trip id="truck154" type="truck_truck" depart="1164.41" departLane="best" from="1351507114#7" to="-13315124#7"/>
    <trip id="truck155" type="truck_truck" depart="1171.97" departLane="best" departSpeed="max" from="406209727" to="13364064#29"/>
    <trip id="truck156" type="truck_truck" depart="1179.53" departLane="best" from="4581191#7" to="1355191056#4"/>
    <trip id="truck157" type="truck_truck" depart="1187.09" departLane="best" departSpeed="max" from="-13452744" to="13399210#54"/>
    <trip id="truck158" type="truck_truck" depart="1194.65" departLane="best" from="-13471148#1" to="-406209730"/>
    <trip id="truck159" type="truck_truck" depart="1202.21" departLane="best" from="13364064#23" to="-13397196#0"/>
    <trip id="truck160" type="truck_truck" depart="1209.77" departLane="best" from="13420405#1" to="13452742"/>
    <trip id="truck161" type="truck_truck" depart="1217.33" departLane="best" from="-645260839" to="13364064#21"/>
    <trip id="truck162" type="truck_truck" depart="1224.89" departLane="best" from="-715719943#0" to="46967216#4"/>
    <trip id="truck163" type="truck_truck" depart="1232.46" departLane="best" from="-406215644#1" to="24672464#4"/>
    <trip id="truck164" type="truck_truck" depart="1240.02" departLane="best" from="-690987761" to="1355191058#0"/>
    <trip id="truck165" type="truck_truck" depart="1247.58" departLane="best" departSpeed="max" from="-13413348" to="-13420405#5"/>
    <trip id="truck166" type="truck_truck" depart="1255.14" departLane="best" from="405326295#2" to="-13417734#6"/>
    <trip id="truck167" type="truck_truck" depart="1262.70" departLane="best" from="13399210#36" to="1215936134"/>
    <trip id="truck168" type="truck_truck" depart="1270.26" departLane="best" from="-59712274" to="13364064#8"/>
    <trip id="truck169" type="truck_truck" depart="1277.82" departLane="best" from="-1250927128" to="13399210#61"/>
    <trip id="truck170" type="truck_truck" depart="1285.38" departLane="best" from="-13310118" to="59712274"/>
    <trip id="truck171" type="truck_truck" depart="1292.94" departLane="best" from="-13400749" to="-406210056#1"/>
    <trip id="truck172" type="truck_truck" depart="1300.51" departLane="best" from="405274916#1" to="59712274"/>
    <trip id="truck173" type="truck_truck" depart="1308.07" departLane="best" from="-1051736210#4" to="13364064#18"/>
    <trip id="truck174" type="truck_truck" depart="1315.63" departLane="best" from="988289826#1" to="-406219020"/>
    <trip id="truck175" type="truck_truck" depart="1323.19" departLane="best" from="13399210#8" to="-405274916#2"/>
    <trip id="truck176" type="truck_truck" depart="1330.75" departLane="best" from="-13399210#82" to="24672464#4"/>
    <trip id="truck178" type="truck_truck" depart="1345.87" departLane="best" from="13364068#10" to="-13420405#3"/>
    <trip id="truck179" type="truck_truck" depart="1353.43" departLane="best" departSpeed="max" from="13464354" to="334267468#10"/>
    <trip id="truck180" type="truck_truck" depart="1360.99" departLane="best" from="334267468#11" to="-13364068#5"/>
    <trip id="truck181" type="truck_truck" depart="1368.56" departLane="best" from="-13364064#4" to="-1151926182#3"/>
    <trip id="truck182" type="truck_truck" depart="1376.12" departLane="best" from="-405325367" to="-13417734#4"/>
    <trip id="truck183" type="truck_truck" depart="1383.68" departLane="best" departSpeed="max" from="13462346#0" to="-13399210#37"/>
    <trip id="truck184" type="truck_truck" depart="1391.24" departLane="best" from="-13364064#31" to="334267468#6"/>
    <trip id="truck185" type="truck_truck" depart="1398.80" departLane="best" from="406215616#1" to="13394800"/>
    <trip id="truck186" type="truck_truck" depart="1406.36" departLane="best" from="-72011935#8" to="569214584#10"/>
    <trip id="truck189" type="truck_truck" depart="1429.04" departLane="best" from="-13364064#35" to="647395502"/>
    <trip id="truck190" type="truck_truck" depart="1436.60" departLane="best" from="13471148#3" to="-1010391346#1"/>
    <trip id="truck191" type="truck_truck" depart="1444.17" departLane="best" from="204085600#0" to="647395545#2"/>
    <trip id="truck192" type="truck_truck" depart="1451.73" departLane="best" departSpeed="max" from="-13469099" to="405326247#0"/>
    <trip id="truck193" type="truck_truck" depart="1459.29" departLane="best" from="13364064#21" to="13254895#4"/>
    <trip id="truck194" type="truck_truck" depart="1466.85" departLane="best" departSpeed="max" from="-13469099" to="406215610#1"/>
    <trip id="truck195" type="truck_truck" depart="1474.41" departLane="best" departSpeed="max" from="406209727" to="-13364064#26"/>
    <trip id="truck196" type="truck_truck" depart="1481.97" departLane="best" from="-406503366" to="-13466211"/>
    <trip id="truck198" type="truck_truck" depart="1497.09" departLane="best" from="406215616#2" to="-13399210#61"/>
    <trip id="truck199" type="truck_truck" depart="1504.65" departLane="best" from="-13400754" to="405325369#14"/>
    <trip id="truck200" type="truck_truck" depart="1512.22" departLane="best" from="-1020207053#6" to="59712283#3"/>
    <trip id="truck201" type="truck_truck" depart="1519.78" departLane="best" from="-13364064#10" to="13469099"/>
    <trip id="truck202" type="truck_truck" depart="1527.34" departLane="best" from="1278736020#9" to="-29610874"/>
    <trip id="truck203" type="truck_truck" depart="1534.90" departLane="best" departSpeed="max" from="13462346#0" to="13399210#67"/>
    <trip id="truck204" type="truck_truck" depart="1542.46" departLane="best" from="13254895#3" to="405325368#7"/>
    <trip id="truck205" type="truck_truck" depart="1550.02" departLane="best" from="-13364064#2" to="-13439862"/>
    <trip id="truck206" type="truck_truck" depart="1557.58" departLane="best" from="13383988#0" to="1278736020#0"/>
    <trip id="truck207" type="truck_truck" depart="1565.14" departLane="best" from="308459799#2" to="406215610#2"/>
    <trip id="truck208" type="truck_truck" depart="1572.70" departLane="best" departSpeed="max" from="13466211" to="1355191056#6"/>
    <trip id="truck209" type="truck_truck" depart="1580.27" departLane="best" from="13364064#19" to="29611124#1"/>
    <trip id="truck210" type="truck_truck" depart="1587.83" departLane="best" from="13399210#48" to="-13420405#10"/>
    <trip id="truck211" type="truck_truck" depart="1595.39" departLane="best" from="1278736020#3" to="13471953#1"/>
    <trip id="truck212" type="truck_truck" depart="1602.95" departLane="best" from="72011935#8" to="-13354140#4"/>
    <trip id="truck213" type="truck_truck" depart="1610.51" departLane="best" from="-1351507114#5" to="13364064#46"/>
    <trip id="truck214" type="truck_truck" depart="1618.07" departLane="best" from="-13399210#39" to="-1051736210#0"/>
    <trip id="truck215" type="truck_truck" depart="1625.63" departLane="best" from="72011935#5" to="13364064#35"/>
    <trip id="truck216" type="truck_truck" depart="1633.19" departLane="best" from="406215678#1" to="13310114"/>
    <trip id="truck217" type="truck_truck" depart="1640.75" departLane="best" from="-406219010#0" to="13364068#4"/>
    <trip id="truck218" type="truck_truck" depart="1648.32" departLane="best" from="-13399210#47" to="13315124#0"/>
    <trip id="truck219" type="truck_truck" depart="1655.88" departLane="best" from="59712281#9" to="-1278736020#4"/>
    <trip id="truck220" type="truck_truck" depart="1663.44" departLane="best" from="-13354140#1" to="13399210#4"/>
    <trip id="truck221" type="truck_truck" depart="1671.00" departLane="best" from="13364068#1" to="405325372"/>
    <trip id="truck222" type="truck_truck" depart="1678.56" departLane="best" departSpeed="max" from="72016664" to="-13372140#1"/>
    <trip id="truck223" type="truck_truck" depart="1686.12" departLane="best" from="405276417#1" to="-13399210#1"/>
    <trip id="truck224" type="truck_truck" depart="1693.68" departLane="best" departSpeed="max" from="405326237#0" to="-13448910#0"/>
    <trip id="truck225" type="truck_truck" depart="1701.24" departLane="best" from="-723822806" to="406215624"/>
    <trip id="truck226" type="truck_truck" depart="1708.80" departLane="best" from="72011936#9" to="-405326228#1"/>
    <trip id="truck228" type="truck_truck" depart="1723.93" departLane="best" departSpeed="max" from="13466211" to="105057079#4"/>
    <trip id="truck229" type="truck_truck" depart="1731.49" departLane="best" departSpeed="max" from="13462346#0" to="59712270#1"/>
    <trip id="truck230" type="truck_truck" depart="1739.05" departLane="best" from="-405326228#1" to="-13399210#34"/>
    <trip id="truck231" type="truck_truck" depart="1746.61" departLane="best" from="13404578#3" to="59712276#1"/>
    <trip id="truck232" type="truck_truck" depart="1754.17" departLane="best" from="-72011935#4" to="13364064#24"/>
    <trip id="truck233" type="truck_truck" depart="1761.73" departLane="best" from="-13399210#76" to="569214584#10"/>
    <trip id="truck234" type="truck_truck" depart="1769.29" departLane="best" from="406209724" to="13359029#2"/>
    <trip id="truck235" type="truck_truck" depart="1776.85" departLane="best" from="13399210#21" to="-405326237#1"/>
    <trip id="truck236" type="truck_truck" depart="1784.41" departLane="best" from="334267468#12" to="13364068#13"/>
    <trip id="truck237" type="truck_truck" depart="1791.98" departLane="best" from="1355191055#3" to="-13383763"/>
    <trip id="truck238" type="truck_truck" depart="1799.54" departLane="best" departSpeed="max" from="13462346#0" to="13453259"/>
    <trip id="truck240" type="truck_truck" depart="1814.66" departLane="best" from="13254895#8" to="-13364064#19"/>
    <trip id="truck241" type="truck_truck" depart="1822.22" departLane="best" from="-405325369#14" to="-13471148#3"/>
    <trip id="truck242" type="truck_truck" depart="1829.78" departLane="best" from="-13364064#18" to="647395515"/>
    <trip id="truck243" type="truck_truck" depart="1837.34" departLane="best" from="604060296#7" to="988289826#1"/>
    <trip id="truck244" type="truck_truck" depart="1844.90" departLane="best" from="13420405#0" to="1355191056#3"/>
    <trip id="truck245" type="truck_truck" depart="1852.46" departLane="best" from="-13254895#5" to="24672464#4"/>
    <trip id="truck246" type="truck_truck" depart="1860.03" departLane="best" from="1051736210#2" to="13399210#77"/>
    <trip id="truck247" type="truck_truck" depart="1867.59" departLane="best" from="13383988#2" to="-13399210#48"/>