<?xml version="1.0" encoding="UTF-8"?>

<!-- generated on 2025-05-04 00:30:39.641094 by osmWebWizard.py UNKNOWN
<configuration>
    <net-file value="/Users/nedasarbalavandeymir/Sumo/2025-05-04-00-29-58/osm.net.xml.gz"/>
    <output-trip-file value="/Users/nedasarbalavandeymir/Sumo/2025-05-04-00-29-58/osm.passenger.trips.xml"/>
    <route-file value="/Users/nedasarbalavandeymir/Sumo/2025-05-04-00-29-58/osm.passenger.rou.xml"/>
    <prefix value="veh"/>
    <trip-attributes value="departLane=&quot;best&quot;"/>
    <fringe-start-attributes value="departSpeed=&quot;max&quot;"/>
    <vehicle-class value="passenger"/>
    <lanes value="True"/>
    <fringe-factor value="5"/>
    <allow-fringe.min-length value="1000.0"/>
    <via-edge-types value="highway.motorway,highway.motorway_link,highway.trunk_link,highway.primary_link,highway.secondary_link,highway.tertiary_link"/>
    <min-distance value="300.0"/>
    <min-distance.fringe value="10.0"/>
    <remove-loops value="True"/>
    <validate value="True"/>
    <insertion-density value="12.0"/>
</configuration>
-->

<!-- generated on 2025-05-04 00:30:39 by Eclipse SUMO duarouter Version 1.22.0
<duarouterConfiguration xmlns:xsi="http://www.w3.org/2001/XMLSchema-instance" xsi:noNamespaceSchemaLocation="http://sumo.dlr.de/xsd/duarouterConfiguration.xsd">

    <input>
        <net-file value="/Users/nedasarbalavandeymir/Sumo/2025-05-04-00-29-58/osm.net.xml.gz"/>
        <route-files value="/Users/nedasarbalavandeymir/Sumo/2025-05-04-00-29-58/osm.passenger.trips.xml"/>
    </input>

    <output>
        <output-file value="/Users/nedasarbalavandeymir/Sumo/2025-05-04-00-29-58/osm.passenger.trips.xml.tmp"/>
        <alternatives-output value="NUL"/>
        <write-trips value="true"/>
    </output>

    <processing>
        <remove-loops value="true"/>
    </processing>

    <time>
        <begin value="0.0"/>
        <end value="3600.0"/>
    </time>

    <report>
        <no-warnings value="true"/>
        <ignore-errors value="true"/>
        <no-step-log value="true"/>
    </report>

</duarouterConfiguration>
-->

<routes xmlns:xsi="http://www.w3.org/2001/XMLSchema-instance" xsi:noNamespaceSchemaLocation="http://sumo.dlr.de/xsd/routes_file.xsd">
    <vType id="veh_passenger" vClass="passenger"/>
    <trip id="veh0" type="veh_passenger" depart="0.00" departLane="best" from="405325368#4" to="-1278736020#6"/>
    <trip id="veh1" type="veh_passenger" depart="5.04" departLane="best" from="-406215681#1" to="-405325369#8"/>
    <trip id="veh2" type="veh_passenger" depart="10.08" departLane="best" departSpeed="max" from="405546347#0" to="405325369#15"/>
    <trip id="veh3" type="veh_passenger" depart="15.12" departLane="best" from="59712271#4" to="-13383988#6"/>
    <trip id="veh4" type="veh_passenger" depart="20.16" departLane="best" from="-13310099" to="-13254895#9"/>
    <trip id="veh5" type="veh_passenger" depart="25.20" departLane="best" from="-405325368#1" to="-13399210#16"/>
    <trip id="veh6" type="veh_passenger" depart="30.24" departLane="best" from="13254895#2" to="405325364"/>
    <trip id="veh7" type="veh_passenger" depart="35.29" departLane="best" from="405325369#2" to="13413348"/>
    <trip id="veh8" type="veh_passenger" depart="40.33" departLane="best" from="-405325368#3" to="1351507114#5"/>
    <trip id="veh9" type="veh_passenger" depart="45.37" departLane="best" from="406215678#1" to="-1020207053#5"/>
    <trip id="veh10" type="veh_passenger" depart="50.41" departLane="best" from="-681872106#3" to="-13448910#0"/>
    <trip id="veh11" type="veh_passenger" depart="55.45" departLane="best" departSpeed="max" from="-13387500" to="-13399210#1"/>
    <trip id="veh12" type="veh_passenger" depart="60.49" departLane="best" from="4581191#7" to="204085600#1"/>
    <trip id="veh13" type="veh_passenger" depart="65.53" departLane="best" from="406215669" to="405544796#4"/>
    <trip id="veh14" type="veh_passenger" depart="70.57" departLane="best" from="13420405#2" to="72011935#8"/>
    <trip id="veh15" type="veh_passenger" depart="75.61" departLane="best" from="-988289826#0" to="-13417734#5"/>
    <trip id="veh17" type="veh_passenger" depart="85.69" departLane="best" from="59712267#2" to="13469099"/>
    <trip id="veh18" type="veh_passenger" depart="90.73" departLane="best" from="405544796#4" to="-13354140#2"/>
    <trip id="veh19" type="veh_passenger" depart="95.77" departLane="best" from="-405325369#10" to="-406503365#0"/>
    <trip id="veh20" type="veh_passenger" depart="100.81" departLane="best" from="-13364068#14" to="-405326295#0"/>
    <trip id="veh21" type="veh_passenger" depart="105.86" departLane="best" from="13397196#6" to="-406219010#1"/>
    <trip id="veh22" type="veh_passenger" depart="110.90" departLane="best" from="-405325368#1" to="-72011936#13"/>
    <trip id="veh23" type="veh_passenger" depart="115.94" departLane="best" from="-72011936#2" to="-405325368#6"/>
    <trip id="veh24" type="veh_passenger" depart="120.98" departLane="best" from="-406215644#0" to="604060296#6"/>
    <trip id="veh25" type="veh_passenger" depart="126.02" departLane="best" from="405325369#14" to="24672464#4"/>
    <trip id="veh26" type="veh_passenger" depart="131.06" departLane="best" from="-13462346#7" to="405544796#3"/>
    <trip id="veh27" type="veh_passenger" depart="136.10" departLane="best" departSpeed="max" from="-13452742" to="-72016664"/>
    <trip id="veh28" type="veh_passenger" depart="141.14" departLane="best" departSpeed="max" from="72016664" to="334267468#7"/>
    <trip id="veh29" type="veh_passenger" depart="146.18" departLane="best" from="13471148#1" to="405325371#0"/>
    <trip id="veh30" type="veh_passenger" depart="151.22" departLane="best" from="4581191#2" to="406215604"/>
    <trip id="veh31" type="veh_passenger" depart="156.26" departLane="best" from="-405325369#13" to="-13278650"/>
    <trip id="veh32" type="veh_passenger" depart="161.30" departLane="best" from="-59712281#11" to="-406215644#1"/>
    <trip id="veh33" type="veh_passenger" depart="166.34" departLane="best" from="-405274916#3" to="-645260838#0"/>
    <trip id="veh34" type="veh_passenger" depart="171.38" departLane="best" from="59712270#0" to="-59712281#10"/>
    <trip id="veh35" type="veh_passenger" depart="176.43" departLane="best" from="-405325370#1" to="1036500992"/>
    <trip id="veh37" type="veh_passenger" depart="186.51" departLane="best" from="-406215630" to="406209732#0"/>
    <trip id="veh38" type="veh_passenger" depart="191.55" departLane="best" from="-1351507112#2" to="-406215627"/>
    <trip id="veh39" type="veh_passenger" depart="196.59" departLane="best" departSpeed="max" from="24672459#0" to="59712271#6"/>
    <trip id="veh40" type="veh_passenger" depart="201.63" departLane="best" from="1051736210#12" to="-405325369#3"/>
    <trip id="veh41" type="veh_passenger" depart="206.67" departLane="best" from="982784187#1" to="-13399210#24"/>
    <trip id="veh42" type="veh_passenger" depart="211.71" departLane="best" from="-13383988#6" to="13354140#4"/>
    <trip id="veh43" type="veh_passenger" depart="216.75" departLane="best" from="13399210#23" to="334267468#11"/>
    <trip id="veh44" type="veh_passenger" depart="221.79" departLane="best" from="406215634#0" to="13254895#4"/>
    <trip id="veh45" type="veh_passenger" depart="226.83" departLane="best" from="-13364064#23" to="-988289826#0"/>
    <trip id="veh46" type="veh_passenger" depart="231.87" departLane="best" from="982784187#1" to="13399210#70"/>
    <trip id="veh47" type="veh_passenger" depart="236.91" departLane="best" from="72011935#8" to="59712267#1"/>
    <trip id="veh48" type="veh_passenger" depart="241.95" departLane="best" from="-1051736210#13" to="405544795#0"/>
    <trip id="veh49" type="veh_passenger" depart="247.00" departLane="best" from="405543905#0" to="-13399210#9"/>
    <trip id="veh50" type="veh_passenger" depart="252.04" departLane="best" from="406215644#0" to="334267468#7"/>
    <trip id="veh51" type="veh_passenger" depart="257.08" departLane="best" from="-13399210#27" to="13315124#6"/>
    <trip id="veh52" type="veh_passenger" depart="262.12" departLane="best" from="13364064#38" to="647395545#2"/>
    <trip id="veh53" type="veh_passenger" depart="267.16" departLane="best" from="59712270#0" to="-406215630"/>
    <trip id="veh54" type="veh_passenger" depart="272.20" departLane="best" from="13399210#38" to="1351507114#7"/>
    <trip id="veh55" type="veh_passenger" depart="277.24" departLane="best" from="-4581191#4" to="334267468#6"/>
    <trip id="veh56" type="veh_passenger" depart="282.28" departLane="best" from="334267468#5" to="-13439862"/>
    <trip id="veh57" type="veh_passenger" depart="287.32" departLane="best" departSpeed="max" from="406210056#0" to="-13404578#2"/>
    <trip id="veh58" type="veh_passenger" depart="292.36" departLane="best" departSpeed="max" from="406215616#0" to="13399210#75"/>
    <trip id="veh59" type="veh_passenger" depart="297.40" departLane="best" from="1010391346#1" to="-645260839"/>
    <trip id="veh60" type="veh_passenger" depart="302.44" departLane="best" from="1250927129#0" to="604060295#1"/>
    <trip id="veh61" type="veh_passenger" depart="307.48" departLane="best" from="59712270#1" to="414764044#2"/>
    <trip id="veh62" type="veh_passenger" depart="312.52" departLane="best" from="-569214584#11" to="-13364064#25"/>
    <trip id="veh63" type="veh_passenger" depart="317.57" departLane="best" from="59712270#1" to="645260844"/>
    <trip id="veh64" type="veh_passenger" depart="322.61" departLane="best" from="13372142#0" to="13383988#10"/>
    <trip id="veh65" type="veh_passenger" depart="327.65" departLane="best" from="-13364064#34" to="405545584#0"/>
    <trip id="veh66" type="veh_passenger" depart="332.69" departLane="best" departSpeed="max" from="406210056#0" to="13399210#80"/>
    <trip id="veh67" type="veh_passenger" depart="337.73" departLane="best" from="-13383988#13" to="13417734#3"/>
    <trip id="veh68" type="veh_passenger" depart="342.77" departLane="best" from="-406215630" to="59712267#8"/>
    <trip id="veh70" type="veh_passenger" depart="352.85" departLane="best" from="13420405#9" to="405544796#4"/>
    <trip id="veh71" type="veh_passenger" depart="357.89" departLane="best" from="-1355191059#1" to="-569214584#9"/>
    <trip id="veh72" type="veh_passenger" depart="362.93" departLane="best" from="982784187#0" to="390810266#0"/>
    <trip id="veh73" type="veh_passenger" depart="367.97" departLane="best" from="-13359029#1" to="-13399210#42"/>
    <trip id="veh74" type="veh_passenger" depart="373.01" departLane="best" from="13399210#48" to="405325370#1"/>
    <trip id="veh75" type="veh_passenger" depart="378.05" departLane="best" from="681872106#1" to="1351507114#3"/>
    <trip id="veh76" type="veh_passenger" depart="383.09" departLane="best" from="-13364064#39" to="334267468#2"/>
    <trip id="veh77" type="veh_passenger" depart="388.14" departLane="best" from="-405325369#11" to="59712276#2"/>
    <trip id="veh78" type="veh_passenger" depart="393.18" departLane="best" from="59712267#1" to="-13364068#0"/>
    <trip id="veh79" type="veh_passenger" depart="398.22" departLane="best" from="-405325366#1" to="-13400749"/>
    <trip id="veh80" type="veh_passenger" depart="403.26" departLane="best" from="604060296#7" to="13462346#7"/>
    <trip id="veh82" type="veh_passenger" depart="413.34" departLane="best" from="406215669" to="-292716907"/>
    <trip id="veh85" type="veh_passenger" depart="428.46" departLane="best" from="405545583#0" to="405325369#11"/>
    <trip id="veh86" type="veh_passenger" depart="433.50" departLane="best" from="72011936#3" to="-13399210#13"/>
    <trip id="veh87" type="veh_passenger" depart="438.54" departLane="best" from="1051736210#7" to="-681872106#2"/>
    <trip id="veh88" type="veh_passenger" depart="443.58" departLane="best" from="59712267#2" to="-406209732#3"/>
    <trip id="veh89" type="veh_passenger" depart="448.62" departLane="best" from="-1351507114#6" to="13354140#4"/>
    <trip id="veh90" type="veh_passenger" depart="453.66" departLane="best" from="-13310099" to="-406219010#1"/>
    <trip id="veh91" type="veh_passenger" depart="458.71" departLane="best" from="-406209730" to="604060294"/>
    <trip id="veh92" type="veh_passenger" depart="463.75" departLane="best" from="13364064#17" to="59712267#2"/>
    <trip id="veh93" type="veh_passenger" depart="468.79" departLane="best" from="13462346#7" to="-13364064#10"/>
    <trip id="veh94" type="veh_passenger" depart="473.83" departLane="best" from="988289826#1" to="416941833"/>
    <trip id="veh95" type="veh_passenger" depart="478.87" departLane="best" from="72011935#6" to="604060295#0"/>
    <trip id="veh96" type="veh_passenger" depart="483.91" departLane="best" from="-46967216#2" to="-13466211"/>
    <trip id="veh97" type="veh_passenger" depart="488.95" departLane="best" from="13397196#7" to="-405325369#10"/>
    <trip id="veh98" type="veh_passenger" depart="493.99" departLane="best" from="1051736210#2" to="-13364064#26"/>
    <trip id="veh99" type="veh_passenger" depart="499.03" departLane="best" from="988289826#1" to="72011936#2"/>
    <trip id="veh100" type="veh_passenger" depart="504.07" departLane="best" from="-13364064#40" to="13254895#6"/>
    <trip id="veh101" type="veh_passenger" depart="509.11" departLane="best" from="681872106#3" to="982784187#0"/>
    <trip id="veh102" type="veh_passenger" depart="514.15" departLane="best" departSpeed="max" from="13466211" to="405544793#1"/>
    <trip id="veh103" type="veh_passenger" depart="519.19" departLane="best" from="13420405#1" to="-4581191#1"/>
    <trip id="veh104" type="veh_passenger" depart="524.23" departLane="best" from="72011935#6" to="13469099"/>
    <trip id="veh105" type="veh_passenger" depart="529.28" departLane="best" departSpeed="max" from="13448910#0" to="405545577#1"/>
    <trip id="veh106" type="veh_passenger" depart="534.32" departLane="best" from="-13364064#10" to="1351507110"/>
    <trip id="veh107" type="veh_passenger" depart="539.36" departLane="best" from="-13399210#42" to="569214584#10"/>
    <trip id="veh108" type="veh_passenger" depart="544.40" departLane="best" from="13420405#6" to="690987758"/>
    <trip id="veh109" type="veh_passenger" depart="549.44" departLane="best" from="-13364068#14" to="-1355191056#6"/>
    <trip id="veh110" type="veh_passenger" depart="554.48" departLane="best" from="334267468#0" to="405325369#14"/>
    <trip id="veh111" type="veh_passenger" depart="559.52" departLane="best" from="-405325369#6" to="13399210#60"/>
    <trip id="veh112" type="veh_passenger" depart="564.56" departLane="best" from="59712271#3" to="-406209732#0"/>
    <trip id="veh113" type="veh_passenger" depart="569.60" departLane="best" departSpeed="max" from="13278650" to="1351507110"/>
    <trip id="veh114" type="veh_passenger" depart="574.64" departLane="best" from="13404578#0" to="604060296#5"/>
    <trip id="veh115" type="veh_passenger" depart="579.68" departLane="best" departSpeed="max" from="-29611124#1" to="405544792#0"/>
    <trip id="veh116" type="veh_passenger" depart="584.72" departLane="best" from="-405325370#1" to="1036500992"/>
    <trip id="veh117" type="veh_passenger" depart="589.76" departLane="best" from="405327135#0" to="-4581191#4"/>
    <trip id="veh118" type="veh_passenger" depart="594.80" departLane="best" from="-59712281#14" to="405545577#3"/>
    <trip id="veh119" type="veh_passenger" depart="599.85" departLane="best" from="-13364064#41" to="13364064#18"/>
    <trip id="veh120" type="veh_passenger" depart="604.89" departLane="best" from="988289826#0" to="982784187#1"/>
    <trip id="veh121" type="veh_passenger" depart="609.93" departLane="best" from="-13364064#44" to="-405325369#10"/>
    <trip id="veh122" type="veh_passenger" depart="614.97" departLane="best" from="-406215639#2" to="604060296#4"/>
    <trip id="veh123" type="veh_passenger" depart="620.01" departLane="best" from="-72011936#2" to="-13462346#0"/>
    <trip id="veh124" type="veh_passenger" depart="625.05" departLane="best" from="414764043" to="405543904#0"/>
    <trip id="veh125" type="veh_passenger" depart="630.09" departLane="best" from="334267468#6" to="72011936#4"/>
    <trip id="veh126" type="veh_passenger" depart="635.13" departLane="best" from="-406219016" to="-4581191#3"/>
    <trip id="veh127" type="veh_passenger" depart="640.17" departLane="best" departSpeed="max" from="405326237#0" to="604060296#8"/>
    <trip id="veh128" type="veh_passenger" depart="645.21" departLane="best" from="-13399210#82" to="-13399210#48"/>
    <trip id="veh129" type="veh_passenger" depart="650.25" departLane="best" from="13399210#19" to="-13420405#0"/>
    <trip id="veh130" type="veh_passenger" depart="655.29" departLane="best" from="-406215659#1" to="24672463#0"/>
    <trip id="veh131" type="veh_passenger" depart="660.33" departLane="best" from="405544796#9" to="405325368#0"/>
    <trip id="veh132" type="veh_passenger" depart="665.37" departLane="best" from="-405325367" to="-406215630"/>
    <trip id="veh133" type="veh_passenger" depart="670.42" departLane="best" from="13399210#12" to="59712276#2"/>
    <trip id="veh134" type="veh_passenger" depart="675.46" departLane="best" from="4581191#5" to="-13397196#0"/>
    <trip id="veh136" type="veh_passenger" depart="685.54" departLane="best" from="1020207053#11" to="406209732#1"/>
    <trip id="veh137" type="veh_passenger" depart="690.58" departLane="best" from="-405325368#2" to="-406215624"/>
    <trip id="veh138" type="veh_passenger" depart="695.62" departLane="best" from="406209724" to="-13417734#5"/>
    <trip id="veh139" type="veh_passenger" depart="700.66" departLane="best" from="13315124#3" to="1020207054#0"/>
    <trip id="veh140" type="veh_passenger" depart="705.70" departLane="best" from="-13364064#6" to="59712270#3"/>
    <trip id="veh141" type="veh_passenger" depart="710.74" departLane="best" from="59712276#2" to="13413348"/>
    <trip id="veh142" type="veh_passenger" depart="715.78" departLane="best" from="414764043" to="13471953#1"/>
    <trip id="veh143" type="veh_passenger" depart="720.82" departLane="best" from="-569214584#14" to="59712274"/>
    <trip id="veh144" type="veh_passenger" depart="725.86" departLane="best" from="406215639#0" to="59712267#1"/>
    <trip id="veh145" type="veh_passenger" depart="730.90" departLane="best" from="-59712274" to="405325368#7"/>
    <trip id="veh146" type="veh_passenger" depart="735.94" departLane="best" from="-406209730" to="13399210#21"/>
    <trip id="veh147" type="veh_passenger" depart="740.99" departLane="best" from="406215616#1" to="59712270#3"/>
    <trip id="veh149" type="veh_passenger" depart="751.07" departLane="best" from="13420405#1" to="604060296#0"/>
    <trip id="veh150" type="veh_passenger" depart="756.11" departLane="best" from="59712267#5" to="72011936#1"/>
    <trip id="veh151" type="veh_passenger" depart="761.15" departLane="best" from="406215681#0" to="59712270#2"/>
    <trip id="veh152" type="veh_passenger" depart="766.19" departLane="best" from="1278736020#7" to="405544796#7"/>
    <trip id="veh153" type="veh_passenger" depart="771.23" departLane="best" from="-647395545#0" to="604060296#1"/>
    <trip id="veh154" type="veh_passenger" depart="776.27" departLane="best" from="406215655#1" to="59712267#3"/>
    <trip id="veh155" type="veh_passenger" depart="781.31" departLane="best" from="406215621#1" to="-13399210#33"/>
    <trip id="veh156" type="veh_passenger" depart="786.35" departLane="best" from="-405325368#5" to="-406219010#0"/>
    <trip id="veh157" type="veh_passenger" depart="791.39" departLane="best" from="13364064#8" to="46967216#4"/>
    <trip id="veh158" type="veh_passenger" depart="796.43" departLane="best" from="406215639#0" to="405326228#0"/>
    <trip id="veh159" type="veh_passenger" depart="801.47" departLane="best" from="1278736020#4" to="-405274909#1"/>
    <trip id="veh160" type="veh_passenger" depart="806.52" departLane="best" from="-647395515" to="59712267#3"/>
    <trip id="veh161" type="veh_passenger" depart="811.56" departLane="best" from="72011935#4" to="406219011"/>
    <trip id="veh162" type="veh_passenger" depart="816.60" departLane="best" from="-405325368#7" to="105057079#2"/>
    <trip id="veh163" type="veh_passenger" depart="821.64" departLane="best" from="72011936#18" to="13399210#88"/>
    <trip id="veh164" type="veh_passenger" depart="826.68" departLane="best" from="604060296#9" to="-13399210#48"/>
    <trip id="veh165" type="veh_passenger" depart="831.72" departLane="best" from="72011935#8" to="1351507114#7"/>
    <trip id="veh166" type="veh_passenger" depart="836.76" departLane="best" from="-72011935#1" to="-406215644#0"/>
    <trip id="veh167" type="veh_passenger" depart="841.80" departLane="best" from="-13399210#21" to="13315124#4"/>
    <trip id="veh168" type="veh_passenger" depart="846.84" departLane="best" from="405545583#0" to="-59712274"/>
    <trip id="veh169" type="veh_passenger" depart="851.88" departLane="best" from="334267468#3" to="-13399210#29"/>
    <trip id="veh170" type="veh_passenger" depart="856.92" departLane="best" from="-1020207053#13" to="13466205"/>
    <trip id="veh172" type="veh_passenger" depart="867.00" departLane="best" from="1010391346#4" to="604060295#0"/>
    <trip id="veh173" type="veh_passenger" depart="872.04" departLane="best" from="13420405#6" to="405544795#0"/>
    <trip id="veh174" type="veh_passenger" depart="877.09" departLane="best" departSpeed="max" from="406209727" to="405325369#0"/>
    <trip id="veh175" type="veh_passenger" depart="882.13" departLane="best" from="405326247#0" to="-647395530"/>
    <trip id="veh176" type="veh_passenger" depart="887.17" departLane="best" from="-59712274" to="46967216#0"/>
    <trip id="veh177" type="veh_passenger" depart="892.21" departLane="best" from="405545577#0" to="-4581191#4"/>
    <trip id="veh178" type="veh_passenger" depart="897.25" departLane="best" from="569214584#3" to="1051736210#5"/>
    <trip id="veh179" type="veh_passenger" depart="902.29" departLane="best" from="1051736210#5" to="-412227861"/>
    <trip id="veh180" type="veh_passenger" depart="907.33" departLane="best" from="-13399210#66" to="13254895#0"/>
    <trip id="veh181" type="veh_passenger" depart="912.37" departLane="best" from="604060296#9" to="405325369#2"/>
    <trip id="veh182" type="veh_passenger" depart="917.41" departLane="best" from="59712276#1" to="-29611124#0"/>
    <trip id="veh183" type="veh_passenger" depart="922.45" departLane="best" departSpeed="max" from="-466737068" to="13417734#1"/>
    <trip id="veh184" type="veh_passenger" depart="927.49" departLane="best" from="1010391346#0" to="-406219020"/>
    <trip id="veh185" type="veh_passenger" depart="932.53" departLane="best" from="13315124#9" to="13471148#0"/>
    <trip id="veh186" type="veh_passenger" depart="937.57" departLane="best" from="13364064#14" to="-405325369#10"/>
    <trip id="veh187" type="veh_passenger" depart="942.61" departLane="best" from="13383763" to="59712276#0"/>
    <trip id="veh188" type="veh_passenger" depart="947.66" departLane="best" from="-13372140#0" to="13399210#37"/>
    <trip id="veh189" type="veh_passenger" depart="952.70" departLane="best" from="405325366#0" to="-647395545#2"/>
    <trip id="veh190" type="veh_passenger" depart="957.74" departLane="best" from="406219017#0" to="405545577#3"/>
    <trip id="veh191" type="veh_passenger" depart="962.78" departLane="best" from="405327141#0" to="-405325370#1"/>
    <trip id="veh192" type="veh_passenger" depart="967.82" departLane="best" from="-1355191056#8" to="-1278736020#5"/>
    <trip id="veh193" type="veh_passenger" depart="972.86" departLane="best" from="405326295#2" to="13364064#9"/>
    <trip id="veh194" type="veh_passenger" depart="977.90" departLane="best" from="46967216#4" to="-13364068#13"/>
    <trip id="veh195" type="veh_passenger" depart="982.94" departLane="best" from="13254895#0" to="334267468#2"/>
    <trip id="veh196" type="veh_passenger" depart="987.98" departLane="best" from="13399210#24" to="-406209731#0"/>
    <trip id="veh197" type="veh_passenger" depart="993.02" departLane="best" from="-13399210#17" to="13298805#1"/>
    <trip id="veh198" type="veh_passenger" depart="998.06" departLane="best" departSpeed="max" from="-13466205" to="681872106#2"/>
    <trip id="veh199" type="veh_passenger" depart="1003.10" departLane="best" from="-13399210#80" to="-13364064#10"/>
    <trip id="veh200" type="veh_passenger" depart="1008.14" departLane="best" from="406209730" to="46967216#0"/>
    <trip id="veh201" type="veh_passenger" depart="1013.18" departLane="best" from="-13364064#43" to="406215650"/>
    <trip id="veh202" type="veh_passenger" depart="1018.23" departLane="best" from="405326295#3" to="72011936#6"/>
    <trip id="veh203" type="veh_passenger" depart="1023.27" departLane="best" from="334267468#0" to="647395521"/>
    <trip id="veh204" type="veh_passenger" depart="1028.31" departLane="best" from="59712271#3" to="24672464#4"/>
    <trip id="veh205" type="veh_passenger" depart="1033.35" departLane="best" from="405545577#0" to="13399210#15"/>
    <trip id="veh206" type="veh_passenger" depart="1038.39" departLane="best" from="406504587" to="13417734#1"/>
    <trip id="veh207" type="veh_passenger" depart="1043.43" departLane="best" from="59712271#6" to="405544796#9"/>
    <trip id="veh208" type="veh_passenger" depart="1048.47" departLane="best" from="13383988#11" to="406215610#1"/>
    <trip id="veh209" type="veh_passenger" depart="1053.51" departLane="best" from="-406209720#1" to="334267468#6"/>
    <trip id="veh210" type="veh_passenger" depart="1058.55" departLane="best" departSpeed="max" from="406210056#0" to="13399210#51"/>
    <trip id="veh211" type="veh_passenger" depart="1063.59" departLane="best" from="405274916#1" to="-406215681#1"/>
    <trip id="veh212" type="veh_passenger" depart="1068.63" departLane="best" from="-13364068#0" to="-406219020"/>
    <trip id="veh213" type="veh_passenger" depart="1073.67" departLane="best" from="-406215659#0" to="-59712281#8"/>
    <trip id="veh214" type="veh_passenger" depart="1078.71" departLane="best" departSpeed="max" from="13439862" to="-13407681#1"/>
    <trip id="veh215" type="veh_passenger" depart="1083.75" departLane="best" from="-405325369#15" to="405327129#0"/>
    <trip id="veh216" type="veh_passenger" depart="1088.80" departLane="best" from="405544796#5" to="-13364064#38"/>
    <trip id="veh217" type="veh_passenger" depart="1093.84" departLane="best" from="1250927129#0" to="-13406623#1"/>
    <trip id="veh218" type="veh_passenger" depart="1098.88" departLane="best" from="13254895#4" to="405325368#4"/>
    <trip id="veh219" type="veh_passenger" depart="1103.92" departLane="best" departSpeed="max" from="13278650" to="59712276#2"/>
    <trip id="veh220" type="veh_passenger" depart="1108.96" departLane="best" departSpeed="max" from="24672459#0" to="405327129#1"/>
    <trip id="veh221" type="veh_passenger" depart="1114.00" departLane="best" from="59712267#0" to="406209730"/>
    <trip id="veh222" type="veh_passenger" depart="1119.04" departLane="best" from="1010391346#0" to="1020207053#4"/>
    <trip id="veh223" type="veh_passenger" depart="1124.08" departLane="best" from="72011935#4" to="405545577#4"/>
    <trip id="veh224" type="veh_passenger" depart="1129.12" departLane="best" from="569214584#14" to="647395545#2"/>
    <trip id="veh225" type="veh_passenger" depart="1134.16" departLane="best" departSpeed="max" from="13278650" to="405545577#1"/>
    <trip id="veh226" type="veh_passenger" depart="1139.20" departLane="best" departSpeed="max" from="13462346#0" to="204085600#0"/>
    <trip id="veh227" type="veh_passenger" depart="1144.24" departLane="best" from="-405325368#3" to="-405325369#3"/>
    <trip id="veh228" type="veh_passenger" depart="1149.28" departLane="best" from="13354140#2" to="13254895#6"/>
    <trip id="veh229" type="veh_passenger" depart="1154.32" departLane="best" from="649530284#0" to="405325369#4"/>
    <trip id="veh230" type="veh_passenger" depart="1159.37" departLane="best" from="1151919007#2" to="-13464354"/>
    <trip id="veh231" type="veh_passenger" depart="1164.41" departLane="best" from="13364068#7" to="-13399210#8"/>
    <trip id="veh232" type="veh_passenger" depart="1169.45" departLane="best" from="390810266#0" to="-13254895#2"/>
    <trip id="veh233" type="veh_passenger" depart="1174.49" departLane="best" from="1036556855" to="13452744"/>
    <trip id="veh234" type="veh_passenger" depart="1179.53" departLane="best" from="-13254895#3" to="334267468#8"/>
    <trip id="veh235" type="veh_passenger" depart="1184.57" departLane="best" from="-13399210#86" to="13364064#24"/>
    <trip id="veh236" type="veh_passenger" depart="1189.61" departLane="best" from="13354140#2" to="-72016664"/>
    <trip id="veh237" type="veh_passenger" depart="1194.65" departLane="best" from="-405274916#3" to="-647395515"/>
    <trip id="veh238" type="veh_passenger" depart="1199.69" departLane="best" from="406209736#0" to="-72016664"/>
    <trip id="veh239" type="veh_passenger" depart="1204.73" departLane="best" from="406209730" to="414764044#2"/>
    <trip id="veh240" type="veh_passenger" depart="1209.77" departLane="best" from="-406209732#0" to="-13377918"/>
    <trip id="veh241" type="veh_passenger" depart="1214.81" departLane="best" from="1250927129#0" to="13404578#2"/>
    <trip id="veh242" type="veh_passenger" depart="1219.85" departLane="best" from="988289826#1" to="72011935#3"/>
    <trip id="veh243" type="veh_passenger" depart="1224.89" departLane="best" from="405325369#2" to="-406215610#3"/>
    <trip id="veh244" type="veh_passenger" depart="1229.94" departLane="best" from="405325369#4" to="405545577#4"/>
    <trip id="veh245" type="veh_passenger" depart="1234.98" departLane="best" from="647395545#0" to="-405325366#1"/>
    <trip id="veh246" type="veh_passenger" depart="1240.02" departLane="best" from="1278736020#0" to="-13439862"/>
    <trip id="veh247" type="veh_passenger" depart="1245.06" departLane="best" from="-13399210#62" to="405325368#7"/>