<?xml version="1.0" encoding="UTF-8"?>

<!-- generated on 2025-06-25 00:43:36.071409 by randomTrips.py UNKNOWN
<configuration>
    <net-file value="osm.net.xml.gz"/>
    <output-trip-file value="bg_trips.rou.xml"/>
    <route-file value="bg_routes.rou.xml"/>
    <length value="True"/>
    <period value="2.0"/>
</configuration>
-->

<!-- generated on 2025-06-25 00:43:35 by Eclipse SUMO duarouter Version v1_22_0+0728-b12b56f69e2
<duarouterConfiguration xmlns:xsi="http://www.w3.org/2001/XMLSchema-instance" xsi:noNamespaceSchemaLocation="http://sumo.dlr.de/xsd/duarouterConfiguration.xsd">

    <input>
        <net-file value="osm.net.xml.gz"/>
        <route-files value="bg_trips.rou.xml"/>
    </input>

    <output>
        <output-file value="bg_routes.rou.xml"/>
        <alternatives-output value="NUL"/>
    </output>

    <time>
        <begin value="0.0"/>
        <end value="3600.0"/>
    </time>

    <report>
        <no-warnings value="true"/>
        <ignore-errors value="true"/>
        <no-step-log value="true"/>
    </report>

</duarouterConfiguration>
-->

<routes xmlns:xsi="http://www.w3.org/2001/XMLSchema-instance" xsi:noNamespaceSchemaLocation="http://sumo.dlr.de/xsd/routes_file.xsd">
    <vehicle id="0" depart="0.00">
        <route edges="13387358#28 -13387358#28 -13387358#27 -13387358#26 -13387358#25 -13387358#24 -13387358#23 -13387358#22 -13387358#21 -13387358#20 -13387358#18 -13387358#17 -13387358#16 -13387358#15 -1166308294#23"/>
    </vehicle>
    <vehicle id="1" depart="2.00">
        <route edges="-13435460#9 406242635#5 406242635#7 406242635#8 406242635#9 406242635#10 406258116#0 406258115#0 1090736692#0 1090736692#1 1090736692#2 1090736692#3 1365892809 406210052#0 406210052#1 406210052#2 406210052#3 406210052#4 406210052#5 406210052#6 406210052#7 406210056#0 -412227861 334631554#0 604060294#0 1036500992 414764043 405544793#1 405544795#0 334267468#0 334267468#2 334267468#3 334267468#4 -13404578#11 -13404578#10 -13404578#9 -13404578#8 -13404578#7 -13404578#6"/>
    </vehicle>
    <vehicle id="2" depart="4.00">
        <route edges="13463892#0 13463892#1 13463892#2 13463892#4 13463892#7 13463892#8 13463892#9 13463892#10 13463892#11 13463892#12 13463892#13 13463892#14 13463892#15 13463892#17 13463892#18 -406259798 -406259780#3 -406259780#2 -406259780#1 -406259780#0 -406259070 -406259067 -406259069 -406259066 -13315528#13 -13315528#12 -13315528#11 -13315528#10 -13315528#9 -13315528#8 -13315528#7 -13315528#6 -13315528#5 -13315528#4 -13315528#3 -13315528#2 -13315528#1 -13315528#0 -406259060 -406259062#1 -406259062#0 -406259064#9 -406259064#8 -406259064#7 -406259064#6 -406259064#4 -406259064#3 -406259064#2 -406259064#0 -406259063#1 -406259059#1 -406259061#5 -406259061#4 -406259061#2 -406259061#1 -406259061#0 -406259065#2 406241601#0 406241601#2 406241606 1020225870#0 406258115#0 1090736692#0 1090736692#1 1090736692#2 1090736692#3 1365892809 406210052#0 406210052#1 406210052#2 406210052#3 406210052#4 406210052#5 406210052#6 406210052#7 406210056#0 -412227861 334631554#0 604060294#0 1036500992 414764043 405544793#1 405544795#0 334267468#0 334267468#2 334267468#3 334267468#4 -13404578#11 -13404578#10 -13404578#9 -13404578#8 -13404578#7 -13404578#6 -13404578#4 13426333#0 13426333#1 13426333#2 13426333#3 -13323113#1 -13323113#0 13293747#2 -13323117#2 -13323117#1 -13323117#0 13411641#0"/>
    </vehicle>
    <vehicle id="3" depart="6.00">
        <route edges="406242635#0 406242649#0 406242649#1 406242649#2 406242649#3 -13304517#7"/>
    </vehicle>
    <vehicle id="4" depart="8.00">
        <route edges="105057079#11 105057047 13310793#3 13310793#4 13310793#5 105057043#3 105057043#4 105057043#5 105057043#6 105057043#7 1063161984 405276418 406219019 4581191#0 4581191#1 4581191#2 4581191#3 4581191#4 4581191#5 4581191#7 406219017#0 -59712274 59712267#0 59712267#1 59712267#2 59712267#3 59712267#5 59712267#6 59712267#7 59712267#8 59712267#9 405544796#0 405544796#2 405544796#3 405544796#4 405544796#5 405544796#6 405544796#7 405544796#8 405544796#8-AddedOffRampEdge 405544796#9 405544796#10 405544792#0 414764044#0 414764044#2 405545577#0 405545577#1 405545577#2 405545577#3 405545577#4 604060295#0 604060295#1 604060296#0 604060296#1 604060296#3 604060296#4 604060296#5 604060296#6 604060296#7 604060296#8 204085600#0 204085600#1 -406210056#2 -406210052#7 -406210052#6 -406210052#5 -406210052#4 -406210052#3 -406210052#2 -406210052#1 -406210052#0 -1090736691 -1090736692#3 -1090736692#2 -1090736692#1 -1090736692#0 -406258115#1 406241587#0 406241587#1 406241587#2 406241587#3 406241587#4 406241587#5 406241587#6 406241587#7 406241587#10 406241598 406242649#0 406242649#1 406242649#2 406242649#3 406242649#5 406242644#0 406242645#0 406242645#2 406242639 406242917#0 406242917#1 406242924#0 -604060314#7 -604060314#4 -604060314#2 -604060314#1 -604060314#0 -1194285986 -1194285987#1 -1194285987#0 -13317660#5 -13317660#4 -13317660#3 -13317660#2 -13317660#1 -13317660#0 -1194285985#1 -1194285983#1 -1194285982#1 -1194285982#0 -1194285981#1 -1194285981#0"/>
    </vehicle>
    <vehicle id="5" depart="10.00">
        <route edges="-13400754 13323113#6 59712269 405544796#0 405544796#2 405544796#3 405544796#4 405544796#5 405544796#6 405544796#7 405544796#8 405544796#8-AddedOffRampEdge 405544796#9 405544796#10 405544792#0 414764044#0 414764044#2 405545577#0 405545577#1 405545577#2 405545577#3 405545577#4 604060295#0 604060295#1 604060296#0 604060296#1 604060296#3 604060296#4 604060296#5 604060296#6 604060296#7 604060296#8 204085600#0 204085600#1 -406210056#2 -406210052#7 -406210052#6 -406210052#5 -406210052#4 -406210052#3 -406210052#2 -406210052#1 -406210052#0 -1090736691 -1090736692#3 -1090736692#2 -1090736692#1 -1090736692#0 -406258115#1 406241587#0 406241587#1 406241587#2 406241587#3 406241587#4 406241587#5 406241587#6 406241587#7 406241587#10 406241598 406242649#0 406242649#1 406242649#2 406242649#3 406242649#5 406242644#0 406232664#0 406232647#1 406232647#2 406232641#0 406232649#0 1014021506 406232653#1 406232653#2 406232653#3 406232653#4 406232656 406232643#0 406232645 4619023#1 4619023#2 406232660 406232651 406232662#1 406232662#2 406232658#0 43080181#0 43080181#1 755844259 755844266#0 755844266#1 13463856#1 13463856#2 13463856#3 -13304511#1 -13304511#0 13304511#0"/>
    </vehicle>
    <vehicle id="6" depart="12.00">
        <route edges="-1166308294#23 -1166308294#22 -1166308294#21 -13460918#10 -13460918#9 -13460918#8 -13460918#7 -13460918#6 -13460918#5 -13460918#4 13373063#8 13373063#9 13373063#10 13373063#11 13373063#12 -13307004#11 -13307004#10 -13307004#9 -13307004#8 -13307004#7 -13307004#6 -13307004#5 -13307004#4 -13307004#3 -13307004#2 -13307004#1 406242635#10 406258116#0 406258115#0 1090736692#0 1090736692#1 1090736692#2 1090736692#3 1365892809 406210052#0 406210052#1 406210052#2 406210052#3 406210052#4 406210052#5 406210052#6 406210052#7 406210056#0 -412227861 334631554#0 604060294#0 1036500992 414764043 405544793#1 405544795#0 334267468#0 334267468#2 334267468#3 334267468#4 -13404578#11 -13404578#10 -13404578#9 -13404578#8 -13404578#7 -13404578#6 -13404578#4 13426333#0 13426333#1 13426333#2 -13387503"/>
    </vehicle>
    <vehicle id="7" depart="14.00">
        <route edges="13398520#1 -13281833#1 -13293747#8 -13293747#7 -13293747#6 -13293747#5 -13281272 -13332367#0 13323117#2"/>
    </vehicle>
    <vehicle id="8" depart="16.00">
        <route edges="-13400754 13323113#6 59712269 405544796#0 405544796#2 405544796#3 405544796#4 405544796#5 405544796#6 405544796#7 405544796#8 405544796#8-AddedOffRampEdge 405544796#9 405544796#10 405544792#0 414764044#0 414764044#2 405545577#0 405545577#1 405545577#2 405545577#3 405545577#4 604060295#0 604060295#1 604060296#0 604060296#1 604060296#3 604060296#4 604060296#5 604060296#6 604060296#7 604060296#8 204085600#0 204085600#1 -406210056#2 -406210052#7 -406210052#6 -406210052#5 -406210052#4 -406210052#3 -406210052#2 -406210052#1 -406210052#0 -1090736691 -1090736692#3 -1090736692#2 -1090736692#1 -1090736692#0 -406258115#1 406241587#0 406241587#1 406241587#2 406241587#3 406241587#4 406241587#5 13287422#1 13287422#2 13287422#3 13287422#4 13287422#5 13287422#6 13287422#7 13287422#8 13287422#9 13287422#11 13287422#12 13287422#13 13287422#14 13287422#15 13287422#16 13287422#18 13287422#19 13287422#20 13287422#21 13287422#23 13287422#24 13287422#26 13287422#27 -1051736211#5 13435466#7 13360156"/>
    </vehicle>
    <vehicle id="9" depart="18.00">
        <route edges="405543907#0 405543907#2 405543907#3 405543907#4 405543907#5 405543907#6 405543907#7 405543907#8 59712270#0 59712270#2 59712270#3 59712270#4 405543905#0 59712267#0 59712267#1 59712267#2 59712267#3 59712267#5 59712267#6 59712267#7 59712267#8 59712267#9 405544796#0 405544796#2 405544796#3 405544796#4 405544796#5 405544796#6 405544796#7 405544796#8 405544796#8-AddedOffRampEdge 405544796#9 405544796#10 405544792#0 414764044#0 414764044#2 405545577#0 405545577#1 405545577#2 405545577#3 405545577#4 604060295#0 604060295#1 604060296#0 604060296#1 604060296#3 604060296#4 604060296#5 604060296#6 604060296#7 604060296#8 204085600#0 204085600#1 -406210056#2 -406210052#7 -406210052#6 -406210052#5 -406210052#4 -406210052#3 -406210052#2 -406210052#1 -406210052#0 -1090736691 -1090736692#3 -1090736692#2 -1090736692#1 -1090736692#0 -406258115#1 406241587#0 406241587#1 406241587#2 406241587#3 406241587#4 406241587#5 406241587#6 406241587#7 406241587#10 406241598 13372985#1 13372985#2 13372985#3 13372985#5 13372985#6 13372985#7 13372985#8 13372985#9 13372985#10 13372985#11 13372985#12 13372985#13 13372985#14 13372985#15 13372985#16 13372985#17 13372985#18 13372985#19 13372985#20 13372985#21 1051736211#3 -1051736211#3"/>
    </vehicle>
    <vehicle id="10" depart="20.00">
        <route edges="405277520#0 405277520#1 405277520#2 405277520#3 405276988#1 405276988#2 405276988#3 405276988#4 405276988#5 405276988#6 405276418 406219019 -13471953#7 -13471953#6 -13471953#5 -13471953#4 -13367374#3 -13367374#2 -13426333#4 -13426333#3 -13387503 13434105#2"/>
    </vehicle>
    <vehicle id="11" depart="22.00">
        <route edges="-340769362#1 340769362#1 340769362#2 340769362#3 1036761436 405277520#0 405277520#1 405277520#2 405277520#3 405276988#1 405276988#2 405276988#3 405276988#4 405276988#5 405276988#6 405276418 406219019 4581191#0 4581191#1 4581191#2 4581191#3 4581191#4 4581191#5 4581191#7 406219017#0 -59712274 59712267#0 59712267#1 59712267#2 59712267#3 59712267#5 59712267#6 59712267#7 59712267#8 59712267#9 405544796#0 405544796#2 405544796#3 405544796#4 405544796#5 405544796#6 405544796#7 405544796#8 405544796#8-AddedOffRampEdge 405544796#9 405544796#10 405544792#0 414764044#0 414764044#2 405545577#0 405545577#1 405545577#2 405545577#3 405545577#4 604060295#0 604060295#1 604060296#0 604060296#1 604060296#3 604060296#4 604060296#5 604060296#6 604060296#7 604060296#8 204085600#0 204085600#1 -406210056#2 -406210052#7 -406210052#6 -406210052#5 -406210052#4 -406210052#3 -406210052#2 -406210052#1 -406210052#0 -1090736691 -1090736692#3 -1090736692#2 -1090736692#1 -1090736692#0 -406258115#1 406241604 1020225871 406241596#0 406259065#0 406259061#0 406259061#1 406259061#2 406259061#3 406259061#5 406259061#6 406259063#0 406259063#2 406259064#2 406259064#3 406259064#4 406259064#6 406259064#7 406259064#8 406259064#9 406259062#0 406259062#1 406259060 13315528#0 13315528#1 13315528#2 13360316#20 -13360316#20"/>
    </vehicle>
    <vehicle id="12" depart="24.00">
        <route edges="599510795#3 604060313 604060314#0 604060314#1 604060314#2 604060314#4 604060314#5 -406234630#2 -243612604#3 -243612604#2 -243612604#1 -243612604#0 -4480316#1 406233346#0 406233346#1 334631993#1 406233344 640278675 192503244#0 192503244#2 192503244#3 405546351 405546352 405546350#0 405546350#1 405546357#0 405546357#1 405546357#2 405546357#3 405546357#4 405546357#5 405546357#6 525615994 525615993 405546353 405546349 405546354 405546355 405546348 405546356#0 405546356#1 405546356#2 405546356#3 405546347#0 334631554#0 604060294#0 1036500992 414764043 405544793#1 405544795#0 334267468#0 334267468#2 334267468#3 334267468#4 334267468#5 334267468#6 334267468#7 334267468#8 334267468#9 334267468#10 334267468#11 334267468#12 59712271#0 59712271#2 59712271#3 59712271#4 59712271#5 59712271#6 59712271#7 982784187#0 982784187#1 405543904#0 -406219017#2 -4581191#7 -4581191#5 -4581191#4 -4581191#3 -4581191#2 -4581191#1 -4581191#0 -406219020 -406219018 -405276988#6 -405276988#5 -405276988#4 -405276988#3 -405276988#2 -405276988#1 -405276988#0 -405277520#2 -405277520#1 -405277520#0"/>
    </vehicle>
    <vehicle id="13" depart="26.00">
        <route edges="-13307004#14 -13307004#13 -13307004#12 13373063#13 13373063#14 13373063#15 13373063#16 406264569#0 406259063#0 406259063#2 406259064#2 406259064#3 406259064#4 406259064#6 406259064#7 406259064#8 406259064#9 406259062#0 406259062#1 406259060 13315528#0 13315528#1 13315528#2 13315528#3 13315528#4 13315528#5 13315528#6 13315528#7 13315528#8 13315528#9 13315528#10 13315528#11 13315528#12 13315528#13 406259066 -406259066 -13315528#13 -13315528#12 -13315528#11 -13315528#10 -13315528#9 -13315528#8 -13315528#7"/>
    </vehicle>
    <vehicle id="15" depart="30.00">
        <route edges="405277520#2 405277520#3 405276988#1 405276988#2 405276988#3 405276988#4 405276988#5 405276988#6 405276418 406219019 4581191#0 4581191#1 4581191#2 4581191#3 4581191#4 4581191#5 4581191#7 406219017#0 -59712274 59712267#0 59712267#1 59712267#2 59712267#3 59712267#5 59712267#6 59712267#7 59712267#8 59712267#9 405544796#0 405544796#2 405544796#3 405544796#4 405544796#5 405544796#6 405544796#7 405544796#8 405544796#8-AddedOffRampEdge 405544796#9 405544796#10 405544792#0 414764044#0 414764044#2 405545577#0 405545577#1 405545577#2 405545577#3 405545577#4 604060295#0 604060295#1 604060296#0 604060296#1 604060296#3 604060296#4 604060296#5 604060296#6 604060296#7 604060296#8 204085600#0 204085600#1 -406210056#2 -406210052#7 -406210052#6 -406210052#5 -406210052#4 -406210052#3 -406210052#2 -406210052#1 -406210052#0 -1090736691 -1090736692#3 -1090736692#2 -1090736692#1 -1090736692#0 -406258115#1 406241587#0 406241587#1 406241587#2 406241587#3 13460918#1 13460918#2 13460918#3 13460918#4 13460918#5 13460918#6 13460918#7 13460918#8"/>
    </vehicle>
    <vehicle id="16" depart="32.00">
        <route edges="13310793#8 105057931 105057079#5 105057079#7 105057079#8 105057953 105057043#5 105057043#6 105057043#7 1063161984 405276418 406219019 4581191#0 4581191#1 4581191#2 4581191#3 4581191#4 4581191#5 4581191#7 406219017#0 -59712274 59712267#0 59712267#1 59712267#2 59712267#3 59712267#5 59712267#6 59712267#7 59712267#8 59712267#9 405544796#0 405544796#2 405544796#3 405544796#4 405544796#5 405544796#6 405544796#7 405544796#8 405544796#8-AddedOffRampEdge 405544796#9 405544796#10 405544792#0 -406215639#2 -690987761 -406215627 -406504587 -72011935#9 -72011935#8 -72011935#7 -72011935#6 -72011935#5 -72011935#4 -72011935#3 -72011935#2 -72011935#1 -72011935#0 72011935#0 72011935#1 72011935#2 72011935#3"/>
    </vehicle>
    <vehicle id="17" depart="34.00">
        <route edges="-586356925#0 1194285981#1 1194285982#0 1194285982#1 1194285983#0 1194285985#0 13317660#0 13317660#1 13317660#2 13317660#3 13317660#4 13317660#5 1194285987#0 1194285987#1 1194285986 604060314#0 604060314#1 604060314#2 604060314#4 604060314#5 -406234630#2 -243612604#3 -243612604#2 -243612604#1 -243612604#0 -4480316#1 406233346#0 406233346#1 334631993#1 406233344 640278675 192503244#0 192503244#2 192503244#3 405546351 405546352 405546350#0 405546350#1 405546357#0 405546357#1 405546357#2 405546357#3 405546357#4 405546357#5 405546357#6 525615994 525615993 405546353 405546349 405546354 405546355 405546348 405546356#0 405546356#1 405546356#2 405546356#3 405546347#0 334631554#0 604060294#0 1036500992 414764043 405544793#1 405544795#0 334267468#0 334267468#2 334267468#3 334267468#4 -13404578#11 -13404578#10 -13404578#9 -13404578#8 -13404578#7 -13404578#6 -13404578#4 13426333#0 13426333#1 13426333#2 13426333#3 -13323113#1 -13323113#0 13293747#2 -13323117#2 -13323117#1 -13323117#0 13329510#0"/>
    </vehicle>
    <vehicle id="18" depart="36.00">
        <route edges="405546350#0 405546350#1 405546357#0 405546357#1 -24672357#1 -24672357#0 405545578 1264201012#0 1264201012#1 604060286#0 604060286#1 405545581#0 405545581#1 405545581#2 405545581#3 406234624#0 630143605 406233348 406233343 406233349#0 406232664#0 406232647#1 406232647#2 406232641#0 406264567#0 1264201018#0 1264201018#1 1264201018#2 406264570#0 406264570#1 406264570#2 406264570#3 406264568 1264201017 1264201016 1264201015 13373063#0"/>
    </vehicle>
    <vehicle id="19" depart="38.00">
        <route edges="406215698#1 406215698#2 406215685#0 406215685#1 406215685#2 406215685#3 406215666#0 406215666#2 406215666#3 406215666#4 406215666#5 406215666#6 406215666#7 406215666#8 406215666#9 406215636#0 406215636#1 406215636#2 406215636#4 406215616#0 406215616#1 406215616#2 406215616#3 406215616#4 406215616#5 406215616#6 406215621#0 406215621#1 406215634#0 406215634#1 334267468#0 334267468#2 334267468#3 334267468#4 334267468#5 334267468#6 334267468#7 334267468#8 334267468#9 334267468#10 334267468#11 334267468#12 -13323113#8 13400754 13354140#4"/>
    </vehicle>
    <vehicle id="20" depart="40.00">
        <route edges="13434105#3 13367374#1 13367374#2 13367374#3 13471953#4 13398520#0 -13281275#2"/>
    </vehicle>
    <vehicle id="21" depart="42.00">
        <route edges="-13404578#6 13404578#6 13404578#7 13404578#8 13404578#9 13404578#10 13404578#11 334267468#5 334267468#6 334267468#7 334267468#8 334267468#9 334267468#10 334267468#11 59712277#0 405544796#0 405544796#2 405544796#3 405544796#4 405544796#5 405544796#6 405544796#7 405544796#8 405544796#8-AddedOffRampEdge 405544796#9 405544796#10 405544792#0 414764044#0 414764044#2 405545577#0 405545577#1 405545577#2 405545577#3 405545577#4 604060295#0 604060295#1 604060296#0 604060296#1 604060296#3 604060296#4 604060296#5 604060296#6 604060296#7 604060296#8 204085600#0 204085600#1 -406210056#2 -406210052#7 -406210052#6 -406210052#5 -406210052#4 -406210052#3 -406210052#2 -406210052#1 -406210052#0 -1090736691 -1090736692#3 -1090736692#2 -1090736692#1 -1090736692#0 -406258115#1 406241587#0 406241587#1 406241587#2 406241587#3 406241587#4 406241587#5 406241587#6 406241587#7 406241587#10 406241598 406242649#0 406242649#1 406242649#2 406242649#3 406242649#5 406242644#0 406232664#0 406232647#1 406232647#2 406232641#0 406232649#0 1014021506 406232653#1 406232653#2 406232653#3 406232653#4 406232656 406232643#0 406232645 4619023#1 4619023#2 406232660 406232651 406232662#1 406232662#2 406232658#0 43080181#0 43080181#1 755844259 755844266#0 755844266#1 13463856#1 13463856#2 13463856#3 13463856#4 13463856#5 -13467844#1 -13467844#0 13467844#0 13467844#1 -13463856#5"/>
    </vehicle>
    <vehicle id="22" depart="44.00">
        <route edges="-13293747#8 -13354938#1 -13354938#0 13293773#0 13293773#1 13293773#2 -13411641#0"/>
    </vehicle>
    <vehicle id="23" depart="46.00">
        <route edges="-13315631#1 -13315631#0 -1257699425#2 -1257699425#1 -13448799#6 -13448799#4 -13448799#3 -13448799#2 -13448799#1"/>
    </vehicle>
    <vehicle id="24" depart="48.00">
        <route edges="13387358#18 13387358#20 13387358#21 13387358#22 13387358#23 13387358#24 13387358#25 13387358#26 13387358#27 1051736211#15 1051736211#16 -406259066 -13315528#13 -13315528#12 -13315528#11 -13315528#10 -13315528#9 -13315528#8 -13315528#7 -13315528#6 -13315528#5 -13315528#4 -13315528#3 -13315528#2 -13315528#1 -13315528#0 -406259060 -406259062#1 -406259062#0 -406259064#9 -406259064#8 -406259064#7 -406259064#6 -406259064#4 -406259064#3 -406259064#2 -406259064#0 -406259063#1 -406259059#1 -406259061#5 -406259061#4 -406259061#2 -406259061#1 -406259061#0 -406259065#2 406241601#0 406241601#2 406241606 1020225870#0 406258115#0 1090736692#0 1090736692#1 1090736692#2 1090736692#3 1365892809 406210052#0 406210052#1 406210052#2 406210052#3 406210052#4 406210052#5 406210052#6 406210052#7 406210056#0 -412227861 334631554#0 604060294#0 1036500992 414764043 405544793#1 405544795#0 334267468#0 334267468#2 334267468#3 334267468#4 334267468#5 334267468#6 334267468#7 334267468#8 334267468#9 334267468#10 334267468#11 334267468#12 59712271#0 59712271#2 59712271#3 59712271#4 59712271#5 59712271#6 59712271#7 982784187#0 982784187#1 405543904#0 -406219017#2 -4581191#7 -4581191#5"/>
    </vehicle>
    <vehicle id="25" depart="50.00">
        <route edges="-406503367#0 416941833 406219019 4581191#0 4581191#1 4581191#2 4581191#3 4581191#4 4581191#5 4581191#7 406219017#0 -59712274 59712267#0 59712267#1 59712267#2 59712267#3 59712267#5 59712267#6 59712267#7 59712267#8 59712267#9 405544796#0 405544796#2 405544796#3 405544796#4 405544796#5 405544796#6 405544796#7 405544796#8 405544796#8-AddedOffRampEdge 405544796#9 405544796#10 405544792#0 414764044#0 414764044#2 405545577#0 405545577#1 405545577#2 405545577#3 405545577#4 604060295#0 604060295#1 604060296#0 604060296#1 604060296#3 604060296#4 604060296#5 604060296#6 604060296#7 604060296#8 204085600#0 204085600#1 -406210056#2 -406210052#7 -406210052#6 -406210052#5 -406210052#4 -406210052#3 -406210052#2 -406210052#1 -406210052#0 -1090736691 -1090736692#3 -1090736692#2 -1090736692#1 -1090736692#0 -406258115#1 406241587#0 406241587#1 13387358#1 13387358#2 13387358#3 13387358#4 13387358#5 13387358#6 13387358#7 13387358#8 13387358#9 13387358#10 13387358#11 13387358#12 13387358#13 13387358#14 13387358#15 13387358#16 13387358#17 13387358#18 13387358#20 13387358#21 13387358#22 13387358#23 13387358#24 13387358#25 13387358#26 13387358#27 13387358#28 -13287982 -13399406"/>
    </vehicle>
    <vehicle id="26" depart="52.00">
        <route edges="-13434105#3 13323113#1 13323113#2 13323113#3 13471953#3 13471953#4 13471953#5 13471953#6 13471953#7 -406219020 -406219018 405276416 406503367#0 406503367#1 405276417#0 405276417#1 649530284#0 59712284 59712270#0 59712270#2"/>
    </vehicle>
    <vehicle id="27" depart="54.00">
        <route edges="13398520#1 13281833#2 13281833#3 13281833#4 13471953#7 4581191#0 4581191#1 4581191#2 4581191#3 4581191#4 4581191#5 4581191#7 406219017#0 -59712274 59712267#0 59712267#1 59712267#2 59712267#3 59712267#5 59712267#6 59712267#7 59712267#8 59712267#9 405544796#0 405544796#2 405544796#3 405544796#4 405544796#5 405544796#6 405544796#7 405544796#8 405544796#8-AddedOffRampEdge 405544796#9 405544796#10 405544792#0 414764044#0 414764044#2 405545577#0 405545577#1 405545577#2 405545577#3 405545577#4 604060295#0 604060295#1 604060296#0 604060296#1 604060296#3 604060296#4 604060296#5 604060296#6 604060296#7 604060296#8 204085600#0 204085600#1 -406210056#2 -406210052#7 -406210052#6 -406210052#5 -406210052#4 -406210052#3 -406210052#2 -406210052#1 -406210052#0 -1090736691 -1090736692#3 -1090736692#2 -1090736692#1 -1090736692#0 -406258115#1 406241587#0 406241587#1 406241587#2 406241587#3 406241587#4 406241587#5 406241587#6 406241587#7 406241587#10 406241598 13372985#1"/>
    </vehicle>
    <vehicle id="28" depart="56.00">
        <route edges="-13372140#0 405544796#6 405544796#7 405544796#8 405544796#8-AddedOffRampEdge 405544796#9 405544796#10 405544792#0 414764044#0 414764044#2 405545577#0 405545577#1 405545577#2 405545577#3 405545577#4 604060295#0 604060295#1 604060296#0 604060296#1 604060296#3 604060296#4 604060296#5 604060296#6 604060296#7 604060296#8 204085600#0 204085600#1 -406210056#2 -406210052#7 -406210052#6 -406210052#5 -406210052#4 -406210052#3 -406210052#2 -406210052#1 -406210052#0 -1090736691 -1090736692#3 -1090736692#2 -1090736692#1 -1090736692#0 -406258115#1 406241587#0 406241587#1 406241587#2 406241587#3 13460918#1 13460918#2 13460918#3 13460918#4 13460918#5 13460918#6 13460918#7"/>
    </vehicle>
    <vehicle id="29" depart="58.00">
        <route edges="-13360316#20 -13315528#2 -13315528#1 -13315528#0 -406259060 -406259062#1 -406259062#0 -406259064#9 -406259064#8 -406259064#7 -406259064#6 -406259064#4 -406259064#3 -406259064#2 -406259064#0 -406259063#1 -406259059#1 -406259061#5 -406259061#4 -406259061#2 -406259061#1 -406259061#0 -406259065#2 406241601#0 406241601#2 406241606 1020225870#0 406258115#0 1090736692#0 1090736692#1 1090736692#2 1090736692#3 1365892809 406210052#0 406210052#1 406210052#2 406210052#3 406210052#4 406210052#5 406210052#6 406210052#7 406210056#0 -412227861 334631554#0 604060294#0 1036500992 414764043 405544793#1 405544795#0 334267468#0 334267468#2 334267468#3 334267468#4 334267468#5 334267468#6 334267468#7 334267468#8 334267468#9 334267468#10 334267468#11 334267468#12 59712271#0 59712271#2 59712271#3 59712271#4 59712271#5 59712271#6 59712271#7 982784187#0 982784187#1 405543904#0 -406219017#2 -4581191#7 -4581191#5 -4581191#4 -4581191#3 -4581191#2 -4581191#1 -4581191#0 -406219020 -406219018 -405276988#6 -405276988#5 -405276988#4 -405276988#3 -405276988#2 -405276988#1 -405276988#0 -405277520#2 -405277520#1 -405277520#0 -1036761436 -340769362#3 -340769362#2 -340769362#1 -340769362#0 -750661576#8 -750661576#7 -750661576#6 -750661576#5 -750661576#4 -750661576#3 -750661576#2 -750661576#1"/>
    </vehicle>
    <vehicle id="30" depart="60.00">
        <route edges="755844274 755844260#0 259846930#0 259846930#2 259846930#3 1008405679 406233345#0 406233345#1 1065518636#0 406233346#0 406233346#1 334631993#1 406233344 640278675 192503244#0 192503244#2 192503244#3 405546351 405546352 405546350#0 405546350#1 405546357#0 405546357#1 405546357#2 405546357#3 405546357#4 405546357#5 405546357#6 525615994 525615993 405546353 405546349 405546354 405546355 405546348 405546356#0 405546356#1 405546356#2 405546356#3 405546347#0 334631554#0 604060294#0 1036500992 414764043 405544793#1 405544795#0 334267468#0 334267468#2 334267468#3 334267468#4 -13404578#11 -13404578#10 -13404578#9 -13404578#8 -13404578#7 13471953#0 13471148#1 13387500"/>
    </vehicle>
    <vehicle id="31" depart="62.00">
        <route edges="13325540#0 13323113#3 13323113#4 13323113#5 13323113#6 59712269 405544796#0 405544796#2 405544796#3 405544796#4 405544796#5 405544796#6 405544796#7 405544796#8 405544796#8-AddedOffRampEdge 405544796#9 405544796#10 405544792#0 414764044#0 414764044#2 405545577#0 405545577#1 405545577#2 405545577#3 405545577#4 604060295#0 604060295#1 604060296#0 604060296#1 604060296#3 604060296#4 604060296#5 604060296#6 604060296#7 604060296#8 604060296#9 405545583#0 405545584#0 405545584#2 1014617514#0 1014617514#1 1014617514#2 405545580#0 405545580#1 604060292 604060288 405545578 1264201012#0 1264201012#1 604060286#0 604060286#1 405545581#0 405545581#1 405545581#2 405545581#3 406234624#0 406233346#0 406233346#1 13412607#0 13412607#1 13412607#2 13421073"/>
    </vehicle>
    <vehicle id="32" depart="64.00">
        <route edges="406210052#3 406210052#4 406210052#5 406210052#6 406210052#7 -406210052#7 -406210052#6 -406210052#5 -406210052#4 -406210052#3 -406210052#2 -406210052#1 -406210052#0 -1090736691 -1090736692#3 -1090736692#2 -1090736692#1 -1090736692#0 -406258115#1 406241587#0 406241587#1 406241587#2 406241587#3 406241587#4 406241587#5 406241587#6 406241587#7 406241587#10 406241598 406242649#0 406242649#1 406242649#2 406242649#3 -13304517#7 -13304517#6 -13304517#5 -13304517#4 -13304517#3 -13304517#2 -13304517#1 -13304517#0 -13433283#1 -1224447124 204198990"/>
    </vehicle>
    <vehicle id="33" depart="66.00">
        <route edges="-13405896 -13329510#1 -13329510#0 13323117#0 13323117#1 13323117#2 -13293747#2 -13293747#1 -13293747#0 611495539 406215698#1 406215698#2 406215685#0 406215685#1 406215685#2 406215685#3 406215666#0 406215666#2 406215666#3 406215666#4 406215666#5 406215666#6 406215666#7 406215666#8 406215666#9 406215636#0 406215636#1 406215636#2 406215636#4 406215616#0 406215616#1 406215616#2 406215616#3 406215616#4 406215616#5 406215616#6 406215621#0 406215621#1 406215634#0 406215634#1 292716907 414764044#0 414764044#2 405545577#0 405545577#1 405545577#2 405545577#3 405545577#4 604060295#0 604060295#1 604060296#0 604060296#1 604060296#3 604060296#4 604060296#5 604060296#6 604060296#7 604060296#8 204085600#0 204085600#1 -406210056#2 -406210052#7 -406210052#6 -406210052#5 -406210052#4 -406210052#3 -406210052#2 -406210052#1 -406210052#0 -1090736691 -1090736692#3 -1090736692#2 -1090736692#1 -1090736692#0 -406258115#1 406241587#0 406241587#1 406241587#2 406241587#3 406241587#4 406241587#5 406241587#6 406241587#7 406241587#10 406241598 406242649#0 406242649#1 406242649#2 406242649#3 406242649#5 406242644#0 406242645#0 406242645#2 406242639 406242917#0 406242917#1 406242924#0 -604060314#7 -604060314#4 -604060314#2 -604060314#1 -604060314#0 -1194285986 -1194285987#1 -1194285987#0 -13317660#5 -13317660#4 -13317660#3 -13317660#2 -13317660#1 -13317660#0 -1194285985#1 -1257699420#1 -1194285984#5"/>
    </vehicle>
    <vehicle id="34" depart="68.00">
        <route edges="-13471148#1 -13471953#0 13404578#7 13404578#8 13404578#9 13404578#10 13404578#11 334267468#5 334267468#6 334267468#7 334267468#8 334267468#9 334267468#10 334267468#11 59712277#0 405544796#0 405544796#2 405544796#3 405544796#4 405544796#5 405544796#6 405544796#7 405544796#8 405544796#8-AddedOffRampEdge 405544796#9 405544796#10 405544792#0 414764044#0 414764044#2 405545577#0 405545577#1 405545577#2 405545577#3 405545577#4 604060295#0 604060295#1 604060296#0 604060296#1 604060296#3 604060296#4 604060296#5 604060296#6 604060296#7 604060296#8 204085600#0 204085600#1 -406210056#2 -406210052#7 -406210052#6 -406210052#5 -406210052#4 -406210052#3 -406210052#2 -406210052#1 -406210052#0 -1090736691 -1090736692#3 -1090736692#2 -1090736692#1 -1090736692#0 -406258115#1 406241587#0 406241587#1 406241587#2 406241587#3 406241587#4 406241587#5 406241587#6 406241587#7 13435460#8 13435460#10 13435460#11 -13435460#11 -13435460#10 -13435460#9"/>
    </vehicle>
    <vehicle id="35" depart="70.00">
        <route edges="-13398520#1 -13398520#0 -13471953#4 -13471953#3 13323113#4 13323113#5 13323113#6 59712269 59712281#0"/>
    </vehicle>
    <vehicle id="36" depart="72.00">