<?xml version="1.0" encoding="UTF-8"?>

<!-- generated on 2025-06-25 00:43:35.105231 by randomTrips.py UNKNOWN
<configuration>
    <net-file value="osm.net.xml.gz"/>
    <output-trip-file value="bg_trips.rou.xml"/>
    <route-file value="bg_routes.rou.xml"/>
    <length value="True"/>
    <period value="2.0"/>
</configuration>
-->

<routes xmlns:xsi="http://www.w3.org/2001/XMLSchema-instance" xsi:noNamespaceSchemaLocation="http://sumo.dlr.de/xsd/routes_file.xsd">
    <trip id="0" depart="0.00" from="13387358#28" to="-1166308294#23"/>
    <trip id="1" depart="2.00" from="-13435460#9" to="-13404578#6"/>
    <trip id="2" depart="4.00" from="13463892#0" to="13411641#0"/>
    <trip id="3" depart="6.00" from="406242635#0" to="-13304517#7"/>
    <trip id="4" depart="8.00" from="105057079#11" to="-1194285981#0"/>
    <trip id="5" depart="10.00" from="-13400754" to="13304511#0"/>
    <trip id="6" depart="12.00" from="-1166308294#23" to="-13387503"/>
    <trip id="7" depart="14.00" from="13398520#1" to="13323117#2"/>
    <trip id="8" depart="16.00" from="-13400754" to="13360156"/>
    <trip id="9" depart="18.00" from="405543907#0" to="-1051736211#3"/>
    <trip id="10" depart="20.00" from="405277520#0" to="13434105#2"/>
    <trip id="11" depart="22.00" from="-340769362#1" to="-13360316#20"/>
    <trip id="12" depart="24.00" from="599510795#3" to="-405277520#0"/>
    <trip id="13" depart="26.00" from="-13307004#14" to="-13315528#7"/>
    <trip id="14" depart="28.00" from="406215604" to="13372140#1"/>
    <trip id="15" depart="30.00" from="405277520#2" to="13460918#8"/>
    <trip id="16" depart="32.00" from="13310793#8" to="72011935#3"/>
    <trip id="17" depart="34.00" from="-586356925#0" to="13329510#0"/>
    <trip id="18" depart="36.00" from="405546350#0" to="13373063#0"/>
    <trip id="19" depart="38.00" from="406215698#1" to="13354140#4"/>
    <trip id="20" depart="40.00" from="13434105#3" to="-13281275#2"/>
    <trip id="21" depart="42.00" from="-13404578#6" to="-13463856#5"/>
    <trip id="22" depart="44.00" from="-13293747#8" to="-13411641#0"/>
    <trip id="23" depart="46.00" from="-13315631#1" to="-13448799#1"/>
    <trip id="24" depart="48.00" from="13387358#18" to="-4581191#5"/>
    <trip id="25" depart="50.00" from="-406503367#0" to="-13399406"/>
    <trip id="26" depart="52.00" from="-13434105#3" to="59712270#2"/>
    <trip id="27" depart="54.00" from="13398520#1" to="13372985#1"/>
    <trip id="28" depart="56.00" from="-13372140#0" to="13460918#7"/>
    <trip id="29" depart="58.00" from="-13360316#20" to="-750661576#1"/>
    <trip id="30" depart="60.00" from="755844274" to="13387500"/>
    <trip id="31" depart="62.00" from="13325540#0" to="13421073"/>
    <trip id="32" depart="64.00" from="406210052#3" to="204198990"/>
    <trip id="33" depart="66.00" from="-13405896" to="-1194285984#5"/>
    <trip id="34" depart="68.00" from="-13471148#1" to="-13435460#9"/>
    <trip id="35" depart="70.00" from="-13398520#1" to="59712281#0"/>
    <trip id="36" depart="72.00" from="406232653#1" to="-13471953#2"/>
    <trip id="37" depart="74.00" from="13400749" to="1020225871"/>
    <trip id="38" depart="76.00" from="406259064#8" to="13281272"/>
    <trip id="39" depart="78.00" from="-13434105#3" to="-13426333#4"/>
    <trip id="40" depart="80.00" from="13329510#1" to="-13435460#14"/>
    <trip id="41" depart="82.00" from="13354140#3" to="406242647"/>
    <trip id="42" depart="84.00" from="1008405678#1" to="-13404578#2"/>
    <trip id="43" depart="86.00" from="85355565#0" to="13304517#3"/>
    <trip id="44" depart="88.00" from="-13307004#1" to="-13281833#0"/>
    <trip id="45" depart="90.00" from="-13323113#5" to="13384124"/>
    <trip id="46" depart="92.00" from="334267468#8" to="105057953"/>
    <trip id="47" depart="94.00" from="-13287422#28" to="-750661576#7"/>
    <trip id="48" depart="96.00" from="770571743" to="13310793#8"/>
    <trip id="49" depart="98.00" from="604060314#5" to="406219014#0"/>
    <trip id="50" depart="100.00" from="-1051736211#7" to="13447863"/>
    <trip id="51" depart="102.00" from="13411641#0" to="13323113#1"/>
    <trip id="52" depart="104.00" from="-13434105#3" to="13387503"/>
    <trip id="53" depart="106.00" from="-13323117#0" to="1090736692#3"/>
    <trip id="54" depart="108.00" from="1166308294#3" to="604060288"/>
    <trip id="55" depart="110.00" from="406232651" to="-13435460#14"/>
    <trip id="56" depart="112.00" from="13293747#3" to="-13373063#1"/>
    <trip id="57" depart="114.00" from="406259061#6" to="406232651"/>
    <trip id="58" depart="116.00" from="-13463856#5" to="13387358#8"/>
    <trip id="59" depart="118.00" from="13372142" to="-13360316#18"/>
    <trip id="60" depart="120.00" from="13471953#2" to="13323113#3"/>
    <trip id="61" depart="122.00" from="204085600#1" to="13315528#2"/>
    <trip id="62" depart="124.00" from="-1008405678#0" to="-243612604#1"/>
    <trip id="63" depart="126.00" from="-1090736692#3" to="569214584#7"/>
    <trip id="64" depart="128.00" from="406232660" to="405546357#2"/>
    <trip id="65" depart="130.00" from="-13467852#0" to="-13287422#2"/>
    <trip id="66" depart="132.00" from="406232653#3" to="59712283#5"/>
    <trip id="67" depart="134.00" from="-13304517#0" to="13293747#1"/>
    <trip id="68" depart="136.00" from="-13293747#1" to="13471953#3"/>
    <trip id="69" depart="138.00" from="13471953#4" to="-13332380#0"/>
    <trip id="70" depart="140.00" from="13281833#0" to="13325540#1"/>
    <trip id="71" depart="142.00" from="-13434105#3" to="406232653#3"/>
    <trip id="72" depart="144.00" from="105057079#12" to="-13400754"/>
    <trip id="73" depart="146.00" from="13315528#3" to="13460918#9"/>
    <trip id="74" depart="148.00" from="-13387358#27" to="-13471953#0"/>
    <trip id="75" depart="150.00" from="770571741" to="13399210#7"/>
    <trip id="76" depart="152.00" from="1063161984" to="13307004#19"/>
    <trip id="77" depart="154.00" from="-13329510#1" to="-13407563"/>
    <trip id="78" depart="156.00" from="-24672357#0" to="13360156"/>
    <trip id="79" depart="158.00" from="-13405896" to="-13404578#2"/>
    <trip id="80" depart="160.00" from="-13293747#1" to="13387358#16"/>
    <trip id="81" depart="162.00" from="-13405668#1" to="406259061#0"/>
    <trip id="82" depart="164.00" from="406215694" to="-13293747#1"/>
    <trip id="83" depart="166.00" from="-13408974" to="13408259"/>
    <trip id="84" depart="168.00" from="-13398520#1" to="-13345308#13"/>
    <trip id="85" depart="170.00" from="586356925#1" to="13346560#1"/>
    <trip id="86" depart="172.00" from="13281275#2" to="334267468#2"/>
    <trip id="87" depart="174.00" from="405277520#3" to="-13387358#2"/>
    <trip id="88" depart="176.00" from="-13307004#5" to="1065518636#0"/>
    <trip id="89" depart="178.00" from="105057079#12" to="13281833#1"/>
    <trip id="90" depart="180.00" from="13460918#1" to="13408974"/>
    <trip id="91" depart="182.00" from="755844263" to="-13315631#2"/>
    <trip id="92" depart="184.00" from="101001204" to="-405547258#2"/>
    <trip id="93" depart="186.00" from="406215698#1" to="-13426673#0"/>
    <trip id="94" depart="188.00" from="-13373063#6" to="1194285986"/>
    <trip id="95" depart="190.00" from="105057079#11" to="-13448799#1"/>
    <trip id="96" depart="192.00" from="-13412607#2" to="43542243#1"/>
    <trip id="97" depart="194.00" from="1090736692#2" to="406219017#0"/>
    <trip id="98" depart="196.00" from="13323113#5" to="-13281833#3"/>
    <trip id="99" depart="198.00" from="929022781#1" to="406210052#1"/>
    <trip id="100" depart="200.00" from="604060313" to="4581191#5"/>
    <trip id="101" depart="202.00" from="406215616#2" to="-13372147#1"/>
    <trip id="102" depart="204.00" from="13287422#23" to="-13400754"/>
    <trip id="103" depart="206.00" from="1008405678#4" to="-13287422#24"/>
    <trip id="104" depart="208.00" from="-586356925#0" to="755844274"/>
    <trip id="105" depart="210.00" from="-13434105#3" to="334267468#11"/>
    <trip id="106" depart="212.00" from="1166308294#9" to="1051736211#13"/>
    <trip id="107" depart="214.00" from="599510795#3" to="770571741"/>
    <trip id="108" depart="216.00" from="13325540#0" to="13447432"/>
    <trip id="109" depart="218.00" from="-13355868#1" to="-13463892#9"/>
    <trip id="110" depart="220.00" from="604060313" to="13354938#0"/>
    <trip id="111" depart="222.00" from="13315631#2" to="13471148#1"/>
    <trip id="112" depart="224.00" from="-13287422#13" to="13355868#0"/>
    <trip id="113" depart="226.00" from="13293747#6" to="406215694"/>
    <trip id="114" depart="228.00" from="-13360316#0" to="604060296#9"/>
    <trip id="115" depart="230.00" from="-13293747#8" to="-13383857#4"/>
    <trip id="116" depart="232.00" from="13360316#11" to="13411641#0"/>
    <trip id="117" depart="234.00" from="-13408259" to="-13330540"/>
    <trip id="118" depart="236.00" from="406241587#7" to="-13426333#4"/>
    <trip id="119" depart="238.00" from="13360316#10" to="13373063#12"/>
    <trip id="120" depart="240.00" from="105057057#0" to="13355868#0"/>
    <trip id="121" depart="242.00" from="13307004#11" to="59712267#9"/>
    <trip id="122" depart="244.00" from="-13387358#30" to="13435466#9"/>
    <trip id="123" depart="246.00" from="-13408974" to="1020225871"/>
    <trip id="124" depart="248.00" from="13407563" to="-13467852#3"/>
    <trip id="125" depart="250.00" from="-13471148#2" to="13471148#3"/>
    <trip id="126" depart="252.00" from="-13293747#1" to="13281272"/>
    <trip id="127" depart="254.00" from="929022781#0" to="770571743"/>
    <trip id="128" depart="256.00" from="-13293747#2" to="-13400754"/>
    <trip id="129" depart="258.00" from="-13434105#3" to="59712267#5"/>
    <trip id="130" depart="260.00" from="406233343" to="406241587#1"/>
    <trip id="131" depart="262.00" from="-406503367#0" to="-13360316#7"/>
    <trip id="132" depart="264.00" from="405546357#0" to="13435460#14"/>
    <trip id="133" depart="266.00" from="13372147#2" to="755844275#0"/>
    <trip id="134" depart="268.00" from="13399406" to="-1051736211#5"/>
    <trip id="135" depart="270.00" from="405544796#8-AddedOffRampEdge" to="-13467852#0"/>
    <trip id="136" depart="272.00" from="13404578#0" to="59712271#5"/>
    <trip id="137" depart="274.00" from="-13332380#1" to="-13325540#1"/>
    <trip id="138" depart="276.00" from="-13323113#3" to="13329510#1"/>
    <trip id="139" depart="278.00" from="-13435460#2" to="13372147#0"/>
    <trip id="140" depart="280.00" from="13435466#2" to="-13398520#1"/>
    <trip id="141" depart="282.00" from="13387358#15" to="-13435460#14"/>
    <trip id="142" depart="284.00" from="13287422#28" to="406259061#0"/>
    <trip id="143" depart="286.00" from="406215598" to="-13307004#19"/>
    <trip id="144" depart="288.00" from="105057079#12" to="-13447432"/>
    <trip id="145" depart="290.00" from="-105057012" to="192503244#0"/>
    <trip id="146" depart="292.00" from="13387358#22" to="-13435460#13"/>
    <trip id="147" depart="294.00" from="13463892#20" to="13329510#0"/>
    <trip id="148" depart="296.00" from="105057079#3" to="-1051736211#7"/>
    <trip id="149" depart="298.00" from="-13293747#3" to="406241587#5"/>
    <trip id="150" depart="300.00" from="406242647" to="13325540#0"/>
    <trip id="151" depart="302.00" from="405546357#0" to="13354938#3"/>
    <trip id="152" depart="304.00" from="-13354938#1" to="-13332380#0"/>
    <trip id="153" depart="306.00" from="-13467852#0" to="406242648#0"/>
    <trip id="154" depart="308.00" from="340769362#1" to="406216740"/>
    <trip id="155" depart="310.00" from="406242635#8" to="-13400749"/>
    <trip id="156" depart="312.00" from="-13412607#2" to="-13323113#2"/>
    <trip id="157" depart="314.00" from="243612604#2" to="406241587#6"/>
    <trip id="158" depart="316.00" from="1020225871" to="13373063#13"/>
    <trip id="159" depart="318.00" from="-13355868#1" to="586356925#3"/>
    <trip id="160" depart="320.00" from="406216724#2" to="750661576#6"/>
    <trip id="161" depart="322.00" from="405543907#6" to="406241587#2"/>
    <trip id="162" depart="324.00" from="-1166308294#17" to="13463892#19"/>
    <trip id="163" depart="326.00" from="-202756206#0" to="586356925#5"/>
    <trip id="164" depart="328.00" from="405276418" to="406229601"/>
    <trip id="165" depart="330.00" from="405543907#6" to="-13435460#3"/>
    <trip id="166" depart="332.00" from="334267468#10" to="-13323117#0"/>
    <trip id="167" depart="334.00" from="406232643#0" to="406216724#2"/>
    <trip id="168" depart="336.00" from="-13404578#1" to="405545580#1"/>
    <trip id="169" depart="338.00" from="1264201012#1" to="-13471148#1"/>
    <trip id="170" depart="340.00" from="334631554#0" to="-13408259"/>
    <trip id="171" depart="342.00" from="-1166308294#12" to="-13387358#28"/>
    <trip id="172" depart="344.00" from="-13471953#4" to="406231973#1"/>
    <trip id="173" depart="346.00" from="604060296#9" to="-13448799#3"/>
    <trip id="174" depart="348.00" from="13387358#4" to="105057024#1"/>
    <trip id="175" depart="350.00" from="755844257#1" to="13323113#0"/>
    <trip id="176" depart="352.00" from="59712267#5" to="-13325540#1"/>
    <trip id="177" depart="354.00" from="604060314#1" to="-13373063#1"/>
    <trip id="178" depart="356.00" from="604060294#0" to="-13435460#2"/>
    <trip id="179" depart="358.00" from="-13323113#4" to="1090736692#2"/>
    <trip id="180" depart="360.00" from="13448910#1" to="-13471953#2"/>
    <trip id="181" depart="362.00" from="13367374#3" to="13304517#7"/>
    <trip id="182" depart="364.00" from="-604060314#0" to="13354140#3"/>
    <trip id="183" depart="366.00" from="-13426333#4" to="13435460#8"/>
    <trip id="184" depart="368.00" from="-1008405678#2" to="4581191#0"/>
    <trip id="185" depart="370.00" from="13315528#2" to="13447863"/>
    <trip id="186" depart="372.00" from="13463892#4" to="13408259"/>
    <trip id="187" depart="374.00" from="-406259798" to="-13293747#1"/>
    <trip id="188" depart="376.00" from="13404578#1" to="-340769362#1"/>
    <trip id="189" depart="378.00" from="-13471148#1" to="406215675#1"/>
    <trip id="190" depart="380.00" from="13435466#7" to="-13467852#4"/>
    <trip id="191" depart="382.00" from="-13467852#3" to="105057043#6"/>
    <trip id="192" depart="384.00" from="101001204" to="-13463892#6"/>
    <trip id="193" depart="386.00" from="-13332367#0" to="105057079#5"/>
    <trip id="194" depart="388.00" from="59712267#7" to="13411641#0"/>
    <trip id="195" depart="390.00" from="406242645#2" to="13372985#5"/>
    <trip id="196" depart="392.00" from="-13463892#13" to="13325540#0"/>
    <trip id="197" depart="394.00" from="-1008405678#0" to="-13460918#8"/>
    <trip id="198" depart="396.00" from="105057079#5" to="13354938#1"/>
    <trip id="199" depart="398.00" from="13399406" to="13281833#0"/>
    <trip id="200" depart="400.00" from="1090736692#1" to="-13400754"/>
    <trip id="201" depart="402.00" from="13281833#0" to="406242649#3"/>
    <trip id="202" depart="404.00" from="340769362#0" to="-13372985#1"/>
    <trip id="203" depart="406.00" from="-13304517#0" to="13307004#14"/>
    <trip id="204" depart="408.00" from="13387358#13" to="-405276988#6"/>
    <trip id="205" depart="410.00" from="405545577#2" to="13471148#3"/>
    <trip id="206" depart="412.00" from="13407563" to="-13407563"/>
    <trip id="207" depart="414.00" from="-13387358#2" to="-1166308294#22"/>
    <trip id="208" depart="416.00" from="-13411641#0" to="13287422#16"/>
    <trip id="209" depart="418.00" from="406215621#1" to="-13293747#3"/>
    <trip id="210" depart="420.00" from="105057024#9" to="13387358#14"/>
    <trip id="211" depart="422.00" from="-13384124" to="13434105#0"/>
    <trip id="212" depart="424.00" from="13293747#0" to="-13426333#2"/>
    <trip id="213" depart="426.00" from="13400754" to="-1051736211#15"/>
    <trip id="214" depart="428.00" from="13471148#1" to="192503236#0"/>
    <trip id="215" depart="430.00" from="-13323113#3" to="1051736211#16"/>
    <trip id="216" depart="432.00" from="-13372147#2" to="604060296#1"/>
    <trip id="217" depart="434.00" from="13304517#1" to="-13281833#2"/>
    <trip id="218" depart="436.00" from="-13412607#2" to="406215675#1"/>
    <trip id="219" depart="438.00" from="1194285984#3" to="405277520#2"/>
    <trip id="220" depart="440.00" from="13404578#2" to="755844275#0"/>
    <trip id="221" depart="442.00" from="13360316#12" to="59714507#0"/>
    <trip id="222" depart="444.00" from="406241601#0" to="13372985#13"/>
    <trip id="223" depart="446.00" from="13435466#6" to="13299288#7"/>
    <trip id="224" depart="448.00" from="405546352" to="13325540#0"/>
    <trip id="225" depart="450.00" from="406242635#5" to="13467852#5"/>
    <trip id="226" depart="452.00" from="13281833#0" to="-13434105#3"/>
    <trip id="227" depart="454.00" from="-13411641#1" to="13387358#30"/>
    <trip id="228" depart="456.00" from="13471953#4" to="13310793#1"/>
    <trip id="229" depart="458.00" from="13373063#7" to="-13435466#7"/>
    <trip id="230" depart="460.00" from="-13293747#7" to="-13460918#4"/>
    <trip id="231" depart="462.00" from="-13435460#2" to="-13471953#5"/>
    <trip id="232" depart="464.00" from="13315528#6" to="-13354140#1"/>
    <trip id="233" depart="466.00" from="-13405896" to="13432980#3"/>
    <trip id="234" depart="468.00" from="13434105#3" to="-13287422#8"/>
    <trip id="235" depart="470.00" from="105057024#1" to="13323113#6"/>
    <trip id="236" depart="472.00" from="105057031#1" to="-13399210#6"/>
    <trip id="237" depart="474.00" from="105057057#2" to="406259061#0"/>
    <trip id="238" depart="476.00" from="13354140#3" to="13434105#0"/>
    <trip id="239" depart="478.00" from="406215688" to="1365892809"/>
    <trip id="240" depart="480.00" from="-586356925#5" to="-1051736211#16"/>
    <trip id="241" depart="482.00" from="-406210052#3" to="13471148#3"/>
    <trip id="242" depart="484.00" from="406215675#1" to="604060288"/>
    <trip id="243" depart="486.00" from="105057057#0" to="13471148#1"/>
    <trip id="244" depart="488.00" from="13323113#1" to="13372140#0"/>
    <trip id="245" depart="490.00" from="-13400754" to="-13404578#2"/>
    <trip id="246" depart="492.00" from="1051736211#5" to="-1194285981#0"/>
    <trip id="247" depart="494.00" from="-243612604#2" to="13411641#1"/>
    <trip id="248" depart="496.00" from="1014617514#1" to="-13372147#0"/>
    <trip id="249" depart="498.00" from="13281272" to="-13332380#0"/>
    <trip id="250" depart="500.00" from="13372985#9" to="-1166308294#27"/>
    <trip id="251" depart="502.00" from="-762263571" to="13332380#0"/>
    <trip id="252" depart="504.00" from="-1166308294#23" to="13395388#0"/>
    <trip id="253" depart="506.00" from="-13345308#12" to="13281275#1"/>
    <trip id="254" depart="508.00" from="-13281833#0" to="-723708758"/>
    <trip id="255" depart="510.00" from="-13398520#1" to="-243612604#3"/>
    <trip id="256" depart="512.00" from="13471953#2" to="-723708758"/>
    <trip id="257" depart="514.00" from="13471148#1" to="405546357#2"/>
    <trip id="258" depart="516.00" from="-13426333#1" to="-13304511#1"/>
    <trip id="259" depart="518.00" from="-1090736692#3" to="13323113#3"/>
    <trip id="260" depart="520.00" from="982784187#1" to="-406259064#4"/>
    <trip id="261" depart="522.00" from="13398520#1" to="24672357#1"/>
    <trip id="262" depart="524.00" from="13399210#2" to="13471148#3"/>
    <trip id="263" depart="526.00" from="59712281#6" to="-13389561#0"/>
    <trip id="264" depart="528.00" from="-1090736692#3" to="-13360316#17"/>
    <trip id="265" depart="530.00" from="-13330540" to="13408259"/>
    <trip id="266" depart="532.00" from="13330540" to="-13404578#1"/>
    <trip id="267" depart="534.00" from="13432980#3" to="1365892809"/>
    <trip id="268" depart="536.00" from="-13367374#1" to="13372147#2"/>
    <trip id="269" depart="538.00" from="13467852#5" to="-13325540#1"/>
    <trip id="270" depart="540.00" from="405545577#3" to="604060314#4"/>
    <trip id="271" depart="542.00" from="-13323113#4" to="-1166308294#24"/>
    <trip id="272" depart="544.00" from="-13467852#6" to="13411641#0"/>
    <trip id="273" depart="546.00" from="604060286#1" to="1036761436"/>
    <trip id="274" depart="548.00" from="13435460#8" to="-13293747#7"/>
    <trip id="275" depart="550.00" from="13426333#2" to="13383857#4"/>
    <trip id="276" depart="552.00" from="-13317660#1" to="202756206#0"/>
    <trip id="277" depart="554.00" from="406215636#0" to="13367374#2"/>
    <trip id="278" depart="556.00" from="-13329510#1" to="755844268#2"/>
    <trip id="279" depart="558.00" from="243612604#3" to="-406259059#1"/>
    <trip id="280" depart="560.00" from="105057079#5" to="-59712281#2"/>
    <trip id="281" depart="562.00" from="13293747#8" to="-406210052#1"/>
    <trip id="282" depart="564.00" from="406215616#5" to="405545584#2"/>
    <trip id="283" depart="566.00" from="-13323113#1" to="604060296#9"/>
    <trip id="284" depart="568.00" from="13387358#17" to="405546357#0"/>
    <trip id="285" depart="570.00" from="13435460#0" to="1090736692#3"/>
    <trip id="286" depart="572.00" from="13460918#8" to="604060314#5"/>
    <trip id="287" depart="574.00" from="-13435460#14" to="405544796#0"/>
    <trip id="288" depart="576.00" from="13315528#1" to="13293747#1"/>
    <trip id="289" depart="578.00" from="1051736211#5" to="13463856#1"/>
    <trip id="290" depart="580.00" from="-13435460#11" to="406215694"/>
    <trip id="291" depart="582.00" from="405546353" to="-13304517#7"/>
    <trip id="292" depart="584.00" from="406233345#0" to="-13426333#2"/>
    <trip id="293" depart="586.00" from="13254895#2" to="13372985#10"/>
    <trip id="294" depart="588.00" from="-586356925#0" to="-1194285981#0"/>
    <trip id="295" depart="590.00" from="406215639#0" to="-13373063#4"/>
    <trip id="296" depart="592.00" from="-13398520#1" to="405276988#2"/>
    <trip id="297" depart="594.00" from="-340769362#1" to="406241587#10"/>
    <trip id="298" depart="596.00" from="13433283#1" to="-13447432"/>
    <trip id="299" depart="598.00" from="-1051736211#5" to="59712285#0"/>
    <trip id="300" depart="600.00" from="-13304517#0" to="13447863"/>
    <trip id="301" depart="602.00" from="13287422#28" to="13471953#2"/>
    <trip id="302" depart="604.00" from="13426333#2" to="13398520#1"/>
    <trip id="303" depart="606.00" from="13287422#7" to="340769362#1"/>
    <trip id="304" depart="608.00" from="-13307004#14" to="-13404578#2"/>
    <trip id="305" depart="610.00" from="13426333#3" to="-13471148#1"/>
    <trip id="306" depart="612.00" from="13354140#1" to="13287422#14"/>
    <trip id="307" depart="614.00" from="13310793#1" to="1051736211#3"/>
    <trip id="308" depart="616.00" from="13467852#0" to="-340769362#2"/>
    <trip id="309" depart="618.00" from="13434105#1" to="-13435466#3"/>
    <trip id="310" depart="620.00" from="-13426333#0" to="-13330540"/>
    <trip id="311" depart="622.00" from="-13382631#1" to="-13329510#1"/>
    <trip id="312" depart="624.00" from="13310793#8" to="13471953#4"/>
    <trip id="313" depart="626.00" from="-13372985#9" to="-13404578#0"/>
    <trip id="314" depart="628.00" from="13287422#16" to="13448910#2"/>
    <trip id="315" depart="630.00" from="72011935#3" to="13310793#10"/>
    <trip id="316" depart="632.00" from="-13447432" to="-13323113#0"/>
    <trip id="317" depart="634.00" from="-13383857#4" to="-13408259"/>
    <trip id="318" depart="636.00" from="-13372985#11" to="-1090736692#1"/>
    <trip id="319" depart="638.00" from="13310793#11" to="-13435466#7"/>
    <trip id="320" depart="640.00" from="630143605" to="13329510#1"/>
    <trip id="321" depart="642.00" from="13426673#4" to="-13332367#1"/>
    <trip id="322" depart="644.00" from="406229147" to="13293747#6"/>
    <trip id="323" depart="646.00" from="406232645" to="13354140#1"/>
    <trip id="324" depart="648.00" from="13281275#0" to="1166308294#17"/>
    <trip id="325" depart="650.00" from="-13372985#9" to="-13281833#4"/>
    <trip id="326" depart="652.00" from="59712267#9" to="13287422#28"/>
    <trip id="327" depart="654.00" from="405545580#1" to="105057024#10"/>
    <trip id="328" depart="656.00" from="-13293747#3" to="13387358#14"/>
    <trip id="329" depart="658.00" from="-13281833#3" to="-13359029"/>
    <trip id="330" depart="660.00" from="13329510#1" to="-13471148#1"/>
    <trip id="331" depart="662.00" from="755844281#0" to="-13329510#1"/>
    <trip id="332" depart="664.00" from="13471953#3" to="13372147#2"/>
    <trip id="333" depart="666.00" from="334267468#6" to="-13407563"/>
    <trip id="334" depart="668.00" from="13307004#11" to="1264201012#0"/>
    <trip id="335" depart="670.00" from="1090736692#2" to="406216724#2"/>
    <trip id="336" depart="672.00" from="755844274" to="-13471148#1"/>
    <trip id="337" depart="674.00" from="13372985#9" to="13372985#1"/>
    <trip id="338" depart="676.00" from="13463892#19" to="59712285#0"/>
    <trip id="339" depart="678.00" from="-13387503" to="-13400754"/>
    <trip id="340" depart="680.00" from="13403018#1" to="-13360316#6"/>
    <trip id="341" depart="682.00" from="-13372147#1" to="-13293747#6"/>
    <trip id="342" depart="684.00" from="-1008405678#4" to="1264201012#0"/>
    <trip id="343" depart="686.00" from="13359029" to="-13463892#11"/>
    <trip id="344" depart="688.00" from="-13405896" to="13435460#3"/>
    <trip id="345" depart="690.00" from="13434105#1" to="1324864130#1"/>
    <trip id="346" depart="692.00" from="13412607#1" to="43542243#2"/>
    <trip id="347" depart="694.00" from="334267468#12" to="13381895#1"/>
    <trip id="348" depart="696.00" from="13404285" to="59712267#6"/>
    <trip id="349" depart="698.00" from="105057079#12" to="13323117#2"/>
    <trip id="350" depart="700.00" from="13398520#1" to="406259064#8"/>
    <trip id="351" depart="702.00" from="405545583#0" to="-13293747#1"/>
    <trip id="352" depart="704.00" from="-13360316#8" to="-13471148#2"/>
    <trip id="353" depart="706.00" from="13467852#6" to="13345308#18"/>
    <trip id="354" depart="708.00" from="-13448799#3" to="-13332367#0"/>
    <trip id="355" depart="710.00" from="13412607#2" to="13434105#3"/>
    <trip id="356" depart="712.00" from="59712270#2" to="13299288#4"/>
    <trip id="357" depart="714.00" from="13287982" to="-13293773#2"/>
    <trip id="358" depart="716.00" from="-13254895#2" to="1090736692#1"/>
    <trip id="359" depart="718.00" from="-13471953#2" to="-13426673#3"/>
    <trip id="360" depart="720.00" from="-13307004#10" to="604060313"/>
    <trip id="361" depart="722.00" from="405546357#1" to="13354140#2"/>
    <trip id="362" depart="724.00" from="59712283#1" to="946809756"/>
    <trip id="363" depart="726.00" from="13407563" to="-13435460#9"/>
    <trip id="364" depart="728.00" from="-13254895#3" to="13471953#2"/>
    <trip id="365" depart="730.00" from="13281275#1" to="13400754"/>
    <trip id="366" depart="732.00" from="406259068" to="-13373063#2"/>
    <trip id="367" depart="734.00" from="13354140#4" to="13387358#28"/>
    <trip id="368" depart="736.00" from="13287422#8" to="-13307004#18"/>
    <trip id="369" depart="738.00" from="-405547257" to="-405276988#1"/>
    <trip id="370" depart="740.00" from="13404578#6" to="406216724#2"/>
    <trip id="371" depart="742.00" from="-13471953#5" to="13432980#3"/>
    <trip id="372" depart="744.00" from="-13448799#2" to="59712283#3"/>
    <trip id="373" depart="746.00" from="405544796#0" to="13325540#1"/>
    <trip id="374" depart="748.00" from="1166308294#8" to="-13471953#2"/>
    <trip id="375" depart="750.00" from="-13471953#2" to="692908076#4"/>
    <trip id="376" depart="752.00" from="1014617514#0" to="13307004#12"/>
    <trip id="377" depart="754.00" from="755844274" to="13404578#2"/>
    <trip id="378" depart="756.00" from="13317660#1" to="105057079#11"/>
    <trip id="379" depart="758.00" from="-13373063#12" to="-43542243#1"/>
    <trip id="380" depart="760.00" from="13471148#3" to="13381895#1"/>
    <trip id="381" depart="762.00" from="13471953#2" to="-13398520#1"/>
    <trip id="382" depart="764.00" from="13323113#4" to="525615993"/>
    <trip id="383" depart="766.00" from="1063161984" to="13434105#2"/>
    <trip id="384" depart="768.00" from="-13329510#1" to="72011935#3"/>
    <trip id="385" depart="770.00" from="13372142" to="-13411641#2"/>
    <trip id="386" depart="772.00" from="-13360316#11" to="13325540#1"/>
    <trip id="387" depart="774.00" from="13323117#0" to="-13307004#19"/>
    <trip id="388" depart="776.00" from="755844275#1" to="406264570#0"/>
    <trip id="389" depart="778.00" from="1264201017" to="-13329510#1"/>
    <trip id="390" depart="780.00" from="405546356#1" to="13299288#1"/>
    <trip id="391" depart="782.00" from="13435460#8" to="13304517#2"/>
    <trip id="392" depart="784.00" from="-13435460#3" to="406210052#0"/>
    <trip id="393" depart="786.00" from="750661576#7" to="-13426333#2"/>
    <trip id="394" depart="788.00" from="13323113#6" to="-762263573#1"/>
    <trip id="395" depart="790.00" from="406503367#0" to="13304517#0"/>
    <trip id="396" depart="792.00" from="406232662#2" to="406229601"/>
    <trip id="397" depart="794.00" from="-13435460#9" to="334631554#0"/>
    <trip id="398" depart="796.00" from="105057031#0" to="59712267#7"/>
    <trip id="399" depart="798.00" from="13293773#2" to="405545581#2"/>
    <trip id="400" depart="800.00" from="-13447432" to="-13467852#0"/>
    <trip id="401" depart="802.00" from="13354938#0" to="929022781#1"/>
    <trip id="402" depart="804.00" from="13287422#30" to="-13355868#0"/>
    <trip id="403" depart="806.00" from="13315528#2" to="-406219018"/>
    <trip id="404" depart="808.00" from="13323117#0" to="13323117#0"/>
    <trip id="405" depart="810.00" from="1194285981#1" to="-13471953#7"/>
    <trip id="406" depart="812.00" from="-13373063#13" to="13434105#1"/>
    <trip id="407" depart="814.00" from="13332380#0" to="-13411641#0"/>
    <trip id="408" depart="816.00" from="192503244#3" to="-13281275#1"/>
    <trip id="409" depart="818.00" from="13467852#0" to="13435460#14"/>