<additional>
    <inductionLoop id="det_-101001199_0" lane="-101001199_0" pos="89.83" freq="60" file="detector_output.xml"/>
    <inductionLoop id="det_-1151395802#0_0" lane="-1151395802#0_0" pos="16.64" freq="60" file="detector_output.xml"/>
    <inductionLoop id="det_-1194285985#1_0" lane="-1194285985#1_0" pos="18.48" freq="60" file="detector_output.xml"/>
    <inductionLoop id="det_-1194285985#1_1" lane="-1194285985#1_1" pos="18.48" freq="60" file="detector_output.xml"/>
    <inductionLoop id="det_-1257699423#2_0" lane="-1257699423#2_0" pos="37.82" freq="60" file="detector_output.xml"/>
    <inductionLoop id="det_-1257699423#2_1" lane="-1257699423#2_1" pos="37.82" freq="60" file="detector_output.xml"/>
    <inductionLoop id="det_-1257699423#2_2" lane="-1257699423#2_2" pos="37.82" freq="60" file="detector_output.xml"/>
    <inductionLoop id="det_-1257699424#2_0" lane="-1257699424#2_0" pos="38.36" freq="60" file="detector_output.xml"/>
    <inductionLoop id="det_-1257699424#2_1" lane="-1257699424#2_1" pos="38.36" freq="60" file="detector_output.xml"/>
    <inductionLoop id="det_-1257699424#2_2" lane="-1257699424#2_2" pos="38.36" freq="60" file="detector_output.xml"/>
    <inductionLoop id="det_-1257699425#1_0" lane="-1257699425#1_0" pos="3.92" freq="60" file="detector_output.xml"/>
    <inductionLoop id="det_-1257699425#1_1" lane="-1257699425#1_1" pos="3.92" freq="60" file="detector_output.xml"/>
    <inductionLoop id="det_-13254895#1_0" lane="-13254895#1_0" pos="115.49" freq="60" file="detector_output.xml"/>
    <inductionLoop id="det_-13345308#15_0" lane="-13345308#15_0" pos="54.87" freq="60" file="detector_output.xml"/>
    <inductionLoop id="det_-13346560#0_0" lane="-13346560#0_0" pos="41.77" freq="60" file="detector_output.xml"/>
    <inductionLoop id="det_-13382631#1_0" lane="-13382631#1_0" pos="28.23" freq="60" file="detector_output.xml"/>
    <inductionLoop id="det_-13435460#9_0" lane="-13435460#9_0" pos="258.06" freq="60" file="detector_output.xml"/>
    <inductionLoop id="det_-187986222#1_0" lane="-187986222#1_0" pos="153.36" freq="60" file="detector_output.xml"/>
    <inductionLoop id="det_-405276416_0" lane="-405276416_0" pos="37.62" freq="60" file="detector_output.xml"/>
    <inductionLoop id="det_-406219018_0" lane="-406219018_0" pos="28.65" freq="60" file="detector_output.xml"/>
    <inductionLoop id="det_-406258115#1_0" lane="-406258115#1_0" pos="43.55" freq="60" file="detector_output.xml"/>
    <inductionLoop id="det_-406258115#1_1" lane="-406258115#1_1" pos="43.55" freq="60" file="detector_output.xml"/>
    <inductionLoop id="det_-406258115#1_2" lane="-406258115#1_2" pos="43.55" freq="60" file="detector_output.xml"/>
    <inductionLoop id="det_-406259058#2_0" lane="-406259058#2_0" pos="6.6" freq="60" file="detector_output.xml"/>
    <inductionLoop id="det_-406259058#2_1" lane="-406259058#2_1" pos="6.6" freq="60" file="detector_output.xml"/>
    <inductionLoop id="det_-406259058#2_2" lane="-406259058#2_2" pos="6.6" freq="60" file="detector_output.xml"/>
    <inductionLoop id="det_-406259058#2_3" lane="-406259058#2_3" pos="6.6" freq="60" file="detector_output.xml"/>
    <inductionLoop id="det_-406259063#1_0" lane="-406259063#1_0" pos="4.88" freq="60" file="detector_output.xml"/>
    <inductionLoop id="det_-406259063#1_1" lane="-406259063#1_1" pos="4.88" freq="60" file="detector_output.xml"/>
    <inductionLoop id="det_-406259063#1_2" lane="-406259063#1_2" pos="4.88" freq="60" file="detector_output.xml"/>
    <inductionLoop id="det_-406259065#2_0" lane="-406259065#2_0" pos="35.46" freq="60" file="detector_output.xml"/>
    <inductionLoop id="det_-406259065#2_1" lane="-406259065#2_1" pos="35.46" freq="60" file="detector_output.xml"/>
    <inductionLoop id="det_-406259065#2_2" lane="-406259065#2_2" pos="35.46" freq="60" file="detector_output.xml"/>
    <inductionLoop id="det_-406259065#2_3" lane="-406259065#2_3" pos="35.46" freq="60" file="detector_output.xml"/>
    <inductionLoop id="det_-406259069_0" lane="-406259069_0" pos="21.46" freq="60" file="detector_output.xml"/>
    <inductionLoop id="det_-406259780#0_0" lane="-406259780#0_0" pos="41.61" freq="60" file="detector_output.xml"/>
    <inductionLoop id="det_-406264567#2_0" lane="-406264567#2_0" pos="35.65" freq="60" file="detector_output.xml"/>
    <inductionLoop id="det_-406264567#2_1" lane="-406264567#2_1" pos="35.65" freq="60" file="detector_output.xml"/>
    <inductionLoop id="det_-412227861_0" lane="-412227861_0" pos="11.22" freq="60" file="detector_output.xml"/>
    <inductionLoop id="det_-412227861_1" lane="-412227861_1" pos="11.22" freq="60" file="detector_output.xml"/>
    <inductionLoop id="det_-414764047#1_0" lane="-414764047#1_0" pos="19.68" freq="60" file="detector_output.xml"/>
    <inductionLoop id="det_-43542243#0_0" lane="-43542243#0_0" pos="46.06" freq="60" file="detector_output.xml"/>
    <inductionLoop id="det_-4480316#1_0" lane="-4480316#1_0" pos="57.53" freq="60" file="detector_output.xml"/>
    <inductionLoop id="det_-4480316#1_1" lane="-4480316#1_1" pos="57.53" freq="60" file="detector_output.xml"/>
    <inductionLoop id="det_-599510795#2_0" lane="-599510795#2_0" pos="53.28" freq="60" file="detector_output.xml"/>
    <inductionLoop id="det_-604060313_0" lane="-604060313_0" pos="126.11" freq="60" file="detector_output.xml"/>
    <inductionLoop id="det_-604060314#0_0" lane="-604060314#0_0" pos="100.45" freq="60" file="detector_output.xml"/>
    <inductionLoop id="det_-647136157#0_0" lane="-647136157#0_0" pos="27.52" freq="60" file="detector_output.xml"/>
    <inductionLoop id="det_-762263573#1_0" lane="-762263573#1_0" pos="7.880000000000001" freq="60" file="detector_output.xml"/>
    <inductionLoop id="det_-762263573#1_1" lane="-762263573#1_1" pos="7.880000000000001" freq="60" file="detector_output.xml"/>
    <inductionLoop id="det_101001204_0" lane="101001204_0" pos="179.54" freq="60" file="detector_output.xml"/>
    <inductionLoop id="det_101001204_1" lane="101001204_1" pos="179.54" freq="60" file="detector_output.xml"/>
    <inductionLoop id="det_101001205#0_0" lane="101001205#0_0" pos="27.91" freq="60" file="detector_output.xml"/>
    <inductionLoop id="det_101001215#1_0" lane="101001215#1_0" pos="100.71" freq="60" file="detector_output.xml"/>
    <inductionLoop id="det_1020225870#0_0" lane="1020225870#0_0" pos="24.6" freq="60" file="detector_output.xml"/>
    <inductionLoop id="det_1020225870#0_1" lane="1020225870#0_1" pos="24.6" freq="60" file="detector_output.xml"/>
    <inductionLoop id="det_1020225870#0_2" lane="1020225870#0_2" pos="24.6" freq="60" file="detector_output.xml"/>
    <inductionLoop id="det_1051736211#16_0" lane="1051736211#16_0" pos="31.090000000000003" freq="60" file="detector_output.xml"/>
    <inductionLoop id="det_1063161984_0" lane="1063161984_0" pos="53.22" freq="60" file="detector_output.xml"/>
    <inductionLoop id="det_1063161984_1" lane="1063161984_1" pos="53.22" freq="60" file="detector_output.xml"/>
    <inductionLoop id="det_1065518636#0_0" lane="1065518636#0_0" pos="40.72" freq="60" file="detector_output.xml"/>
    <inductionLoop id="det_1065518636#0_1" lane="1065518636#0_1" pos="40.72" freq="60" file="detector_output.xml"/>
    <inductionLoop id="det_1065518636#0_2" lane="1065518636#0_2" pos="40.72" freq="60" file="detector_output.xml"/>
    <inductionLoop id="det_1194285983#0_0" lane="1194285983#0_0" pos="11.77" freq="60" file="detector_output.xml"/>
    <inductionLoop id="det_1194285983#0_1" lane="1194285983#0_1" pos="11.77" freq="60" file="detector_output.xml"/>
    <inductionLoop id="det_1194285986_0" lane="1194285986_0" pos="56.79" freq="60" file="detector_output.xml"/>
    <inductionLoop id="det_1194285986_1" lane="1194285986_1" pos="56.79" freq="60" file="detector_output.xml"/>
    <inductionLoop id="det_1257699420#0_0" lane="1257699420#0_0" pos="39.45" freq="60" file="detector_output.xml"/>
    <inductionLoop id="det_1257699420#0_1" lane="1257699420#0_1" pos="39.45" freq="60" file="detector_output.xml"/>
    <inductionLoop id="det_1257699420#0_2" lane="1257699420#0_2" pos="39.45" freq="60" file="detector_output.xml"/>
    <inductionLoop id="det_13345308#14_0" lane="13345308#14_0" pos="16.89" freq="60" file="detector_output.xml"/>
    <inductionLoop id="det_13435460#4_0" lane="13435460#4_0" pos="41.4" freq="60" file="detector_output.xml"/>
    <inductionLoop id="det_13448799#5_0" lane="13448799#5_0" pos="55.92" freq="60" file="detector_output.xml"/>
    <inductionLoop id="det_187986225#0_0" lane="187986225#0_0" pos="22.28" freq="60" file="detector_output.xml"/>
    <inductionLoop id="det_187986226#1_0" lane="187986226#1_0" pos="12.8" freq="60" file="detector_output.xml"/>
    <inductionLoop id="det_192503236#0_0" lane="192503236#0_0" pos="43.41" freq="60" file="detector_output.xml"/>
    <inductionLoop id="det_192503236#0_1" lane="192503236#0_1" pos="43.41" freq="60" file="detector_output.xml"/>
    <inductionLoop id="det_192503236#0_2" lane="192503236#0_2" pos="43.41" freq="60" file="detector_output.xml"/>
    <inductionLoop id="det_24672459#0_0" lane="24672459#0_0" pos="39.32" freq="60" file="detector_output.xml"/>
    <inductionLoop id="det_24672459#0_1" lane="24672459#0_1" pos="39.32" freq="60" file="detector_output.xml"/>
    <inductionLoop id="det_334631554#0_0" lane="334631554#0_0" pos="378.08" freq="60" file="detector_output.xml"/>
    <inductionLoop id="det_334631554#0_1" lane="334631554#0_1" pos="378.08" freq="60" file="detector_output.xml"/>
    <inductionLoop id="det_334631554#0_2" lane="334631554#0_2" pos="378.08" freq="60" file="detector_output.xml"/>
    <inductionLoop id="det_334631554#0_3" lane="334631554#0_3" pos="378.08" freq="60" file="detector_output.xml"/>
    <inductionLoop id="det_405276988#6_0" lane="405276988#6_0" pos="88.77" freq="60" file="detector_output.xml"/>
    <inductionLoop id="det_405545577#4_0" lane="405545577#4_0" pos="32.12" freq="60" file="detector_output.xml"/>
    <inductionLoop id="det_405545577#4_1" lane="405545577#4_1" pos="32.12" freq="60" file="detector_output.xml"/>
    <inductionLoop id="det_405545577#4_2" lane="405545577#4_2" pos="32.12" freq="60" file="detector_output.xml"/>
    <inductionLoop id="det_405545577#4_3" lane="405545577#4_3" pos="32.12" freq="60" file="detector_output.xml"/>
    <inductionLoop id="det_405545583#0_0" lane="405545583#0_0" pos="67.16" freq="60" file="detector_output.xml"/>
    <inductionLoop id="det_405545583#0_1" lane="405545583#0_1" pos="67.16" freq="60" file="detector_output.xml"/>
    <inductionLoop id="det_405545583#0_2" lane="405545583#0_2" pos="67.16" freq="60" file="detector_output.xml"/>
    <inductionLoop id="det_405545583#0_3" lane="405545583#0_3" pos="67.16" freq="60" file="detector_output.xml"/>
    <inductionLoop id="det_405545583#0_4" lane="405545583#0_4" pos="67.16" freq="60" file="detector_output.xml"/>
    <inductionLoop id="det_405546347#0_0" lane="405546347#0_0" pos="16.62" freq="60" file="detector_output.xml"/>
    <inductionLoop id="det_405546347#0_1" lane="405546347#0_1" pos="16.62" freq="60" file="detector_output.xml"/>
    <inductionLoop id="det_405546347#0_2" lane="405546347#0_2" pos="16.62" freq="60" file="detector_output.xml"/>
    <inductionLoop id="det_405546347#0_3" lane="405546347#0_3" pos="16.62" freq="60" file="detector_output.xml"/>
    <inductionLoop id="det_406215613#0_0" lane="406215613#0_0" pos="66.59" freq="60" file="detector_output.xml"/>
    <inductionLoop id="det_406215613#0_1" lane="406215613#0_1" pos="66.59" freq="60" file="detector_output.xml"/>
    <inductionLoop id="det_406215613#0_2" lane="406215613#0_2" pos="66.59" freq="60" file="detector_output.xml"/>
    <inductionLoop id="det_406215688_0" lane="406215688_0" pos="79.27" freq="60" file="detector_output.xml"/>
    <inductionLoop id="det_406215688_1" lane="406215688_1" pos="79.27" freq="60" file="detector_output.xml"/>
    <inductionLoop id="det_406215688_2" lane="406215688_2" pos="79.27" freq="60" file="detector_output.xml"/>
    <inductionLoop id="det_406215688_3" lane="406215688_3" pos="79.27" freq="60" file="detector_output.xml"/>
    <inductionLoop id="det_406215694_0" lane="406215694_0" pos="309.82" freq="60" file="detector_output.xml"/>
    <inductionLoop id="det_406215694_1" lane="406215694_1" pos="309.82" freq="60" file="detector_output.xml"/>
    <inductionLoop id="det_406215694_2" lane="406215694_2" pos="309.82" freq="60" file="detector_output.xml"/>
    <inductionLoop id="det_406216725_0" lane="406216725_0" pos="10.64" freq="60" file="detector_output.xml"/>
    <inductionLoop id="det_406216725_1" lane="406216725_1" pos="10.64" freq="60" file="detector_output.xml"/>
    <inductionLoop id="det_406216725_2" lane="406216725_2" pos="10.64" freq="60" file="detector_output.xml"/>
    <inductionLoop id="det_406216725_3" lane="406216725_3" pos="10.64" freq="60" file="detector_output.xml"/>
    <inductionLoop id="det_406229147_0" lane="406229147_0" pos="81.83" freq="60" file="detector_output.xml"/>
    <inductionLoop id="det_406229147_1" lane="406229147_1" pos="81.83" freq="60" file="detector_output.xml"/>
    <inductionLoop id="det_406229147_2" lane="406229147_2" pos="81.83" freq="60" file="detector_output.xml"/>
    <inductionLoop id="det_406231989_0" lane="406231989_0" pos="38.1" freq="60" file="detector_output.xml"/>
    <inductionLoop id="det_406231989_1" lane="406231989_1" pos="38.1" freq="60" file="detector_output.xml"/>
    <inductionLoop id="det_406231989_2" lane="406231989_2" pos="38.1" freq="60" file="detector_output.xml"/>
    <inductionLoop id="det_406232641#0_0" lane="406232641#0_0" pos="45.96" freq="60" file="detector_output.xml"/>
    <inductionLoop id="det_406232641#0_1" lane="406232641#0_1" pos="45.96" freq="60" file="detector_output.xml"/>
    <inductionLoop id="det_406232641#0_2" lane="406232641#0_2" pos="45.96" freq="60" file="detector_output.xml"/>
    <inductionLoop id="det_406232643#0_0" lane="406232643#0_0" pos="28.15" freq="60" file="detector_output.xml"/>
    <inductionLoop id="det_406232643#0_1" lane="406232643#0_1" pos="28.15" freq="60" file="detector_output.xml"/>
    <inductionLoop id="det_406232643#0_2" lane="406232643#0_2" pos="28.15" freq="60" file="detector_output.xml"/>
    <inductionLoop id="det_406232643#0_3" lane="406232643#0_3" pos="28.15" freq="60" file="detector_output.xml"/>
    <inductionLoop id="det_406232658#0_0" lane="406232658#0_0" pos="24.47" freq="60" file="detector_output.xml"/>
    <inductionLoop id="det_406232658#0_1" lane="406232658#0_1" pos="24.47" freq="60" file="detector_output.xml"/>
    <inductionLoop id="det_406232658#0_2" lane="406232658#0_2" pos="24.47" freq="60" file="detector_output.xml"/>
    <inductionLoop id="det_406232660_0" lane="406232660_0" pos="17.81" freq="60" file="detector_output.xml"/>
    <inductionLoop id="det_406232660_1" lane="406232660_1" pos="17.81" freq="60" file="detector_output.xml"/>
    <inductionLoop id="det_406232660_2" lane="406232660_2" pos="17.81" freq="60" file="detector_output.xml"/>
    <inductionLoop id="det_406233349#0_0" lane="406233349#0_0" pos="53.82" freq="60" file="detector_output.xml"/>
    <inductionLoop id="det_406233349#0_1" lane="406233349#0_1" pos="53.82" freq="60" file="detector_output.xml"/>
    <inductionLoop id="det_406233349#0_2" lane="406233349#0_2" pos="53.82" freq="60" file="detector_output.xml"/>
    <inductionLoop id="det_406233349#0_3" lane="406233349#0_3" pos="53.82" freq="60" file="detector_output.xml"/>
    <inductionLoop id="det_406234624#0_0" lane="406234624#0_0" pos="74.24" freq="60" file="detector_output.xml"/>
    <inductionLoop id="det_406234624#0_1" lane="406234624#0_1" pos="74.24" freq="60" file="detector_output.xml"/>
    <inductionLoop id="det_406234624#0_2" lane="406234624#0_2" pos="74.24" freq="60" file="detector_output.xml"/>
    <inductionLoop id="det_406234624#0_3" lane="406234624#0_3" pos="74.24" freq="60" file="detector_output.xml"/>
    <inductionLoop id="det_406234624#0_4" lane="406234624#0_4" pos="74.24" freq="60" file="detector_output.xml"/>
    <inductionLoop id="det_406234630#0_0" lane="406234630#0_0" pos="25.25" freq="60" file="detector_output.xml"/>
    <inductionLoop id="det_406234630#0_1" lane="406234630#0_1" pos="25.25" freq="60" file="detector_output.xml"/>
    <inductionLoop id="det_406241587#7_0" lane="406241587#7_0" pos="60.94" freq="60" file="detector_output.xml"/>
    <inductionLoop id="det_406241587#7_1" lane="406241587#7_1" pos="60.94" freq="60" file="detector_output.xml"/>
    <inductionLoop id="det_406241596#0_0" lane="406241596#0_0" pos="42.78" freq="60" file="detector_output.xml"/>
    <inductionLoop id="det_406241596#0_1" lane="406241596#0_1" pos="42.78" freq="60" file="detector_output.xml"/>
    <inductionLoop id="det_406241596#0_2" lane="406241596#0_2" pos="42.78" freq="60" file="detector_output.xml"/>
    <inductionLoop id="det_406241596#0_3" lane="406241596#0_3" pos="42.78" freq="60" file="detector_output.xml"/>
    <inductionLoop id="det_406241596#0_4" lane="406241596#0_4" pos="42.78" freq="60" file="detector_output.xml"/>
    <inductionLoop id="det_406242635#2_0" lane="406242635#2_0" pos="131.52" freq="60" file="detector_output.xml"/>
    <inductionLoop id="det_406242635#2_1" lane="406242635#2_1" pos="131.52" freq="60" file="detector_output.xml"/>
    <inductionLoop id="det_406242644#0_0" lane="406242644#0_0" pos="53.27" freq="60" file="detector_output.xml"/>
    <inductionLoop id="det_406242644#0_1" lane="406242644#0_1" pos="53.27" freq="60" file="detector_output.xml"/>
    <inductionLoop id="det_406242644#0_2" lane="406242644#0_2" pos="53.27" freq="60" file="detector_output.xml"/>
    <inductionLoop id="det_406242644#0_3" lane="406242644#0_3" pos="53.27" freq="60" file="detector_output.xml"/>
    <inductionLoop id="det_406242644#0_4" lane="406242644#0_4" pos="53.27" freq="60" file="detector_output.xml"/>
    <inductionLoop id="det_406242646#0_0" lane="406242646#0_0" pos="31.29" freq="60" file="detector_output.xml"/>
    <inductionLoop id="det_406242646#0_1" lane="406242646#0_1" pos="31.29" freq="60" file="detector_output.xml"/>
    <inductionLoop id="det_406242646#0_2" lane="406242646#0_2" pos="31.29" freq="60" file="detector_output.xml"/>
    <inductionLoop id="det_406242646#0_3" lane="406242646#0_3" pos="31.29" freq="60" file="detector_output.xml"/>
    <inductionLoop id="det_406242646#0_4" lane="406242646#0_4" pos="31.29" freq="60" file="detector_output.xml"/>
    <inductionLoop id="det_406242924#0_0" lane="406242924#0_0" pos="35.62" freq="60" file="detector_output.xml"/>
    <inductionLoop id="det_406242924#0_1" lane="406242924#0_1" pos="35.62" freq="60" file="detector_output.xml"/>
    <inductionLoop id="det_406242924#0_3" lane="406242924#0_3" pos="35.62" freq="60" file="detector_output.xml"/>
    <inductionLoop id="det_406242930#0_0" lane="406242930#0_0" pos="42.08" freq="60" file="detector_output.xml"/>
    <inductionLoop id="det_406242930#0_1" lane="406242930#0_1" pos="42.08" freq="60" file="detector_output.xml"/>
    <inductionLoop id="det_406242930#0_2" lane="406242930#0_2" pos="42.08" freq="60" file="detector_output.xml"/>
    <inductionLoop id="det_406242930#0_3" lane="406242930#0_3" pos="42.08" freq="60" file="detector_output.xml"/>
    <inductionLoop id="det_406258116#0_0" lane="406258116#0_0" pos="21.88" freq="60" file="detector_output.xml"/>
    <inductionLoop id="det_406258116#0_1" lane="406258116#0_1" pos="21.88" freq="60" file="detector_output.xml"/>
    <inductionLoop id="det_406258116#0_2" lane="406258116#0_2" pos="21.88" freq="60" file="detector_output.xml"/>
    <inductionLoop id="det_406259061#6_0" lane="406259061#6_0" pos="39.88" freq="60" file="detector_output.xml"/>
    <inductionLoop id="det_406259061#6_1" lane="406259061#6_1" pos="39.88" freq="60" file="detector_output.xml"/>
    <inductionLoop id="det_406259066_0" lane="406259066_0" pos="22.06" freq="60" file="detector_output.xml"/>
    <inductionLoop id="det_406264569#0_0" lane="406264569#0_0" pos="19.05" freq="60" file="detector_output.xml"/>
    <inductionLoop id="det_406264569#0_1" lane="406264569#0_1" pos="19.05" freq="60" file="detector_output.xml"/>
    <inductionLoop id="det_406264569#0_2" lane="406264569#0_2" pos="19.05" freq="60" file="detector_output.xml"/>
    <inductionLoop id="det_598628202#18_0" lane="598628202#18_0" pos="169.98" freq="60" file="detector_output.xml"/>
    <inductionLoop id="det_599510795#3_0" lane="599510795#3_0" pos="63.08" freq="60" file="detector_output.xml"/>
    <inductionLoop id="det_604060294#0_0" lane="604060294#0_0" pos="215.7" freq="60" file="detector_output.xml"/>
    <inductionLoop id="det_604060294#0_1" lane="604060294#0_1" pos="215.7" freq="60" file="detector_output.xml"/>
    <inductionLoop id="det_604060294#0_2" lane="604060294#0_2" pos="215.7" freq="60" file="detector_output.xml"/>
    <inductionLoop id="det_604060294#0_3" lane="604060294#0_3" pos="215.7" freq="60" file="detector_output.xml"/>
    <inductionLoop id="det_604060296#1_0" lane="604060296#1_0" pos="58.31" freq="60" file="detector_output.xml"/>
    <inductionLoop id="det_604060296#1_1" lane="604060296#1_1" pos="58.31" freq="60" file="detector_output.xml"/>
    <inductionLoop id="det_604060296#1_2" lane="604060296#1_2" pos="58.31" freq="60" file="detector_output.xml"/>
    <inductionLoop id="det_604060297_0" lane="604060297_0" pos="85.73" freq="60" file="detector_output.xml"/>
    <inductionLoop id="det_604060313_0" lane="604060313_0" pos="126.17" freq="60" file="detector_output.xml"/>
    <inductionLoop id="det_604060314#5_0" lane="604060314#5_0" pos="88.89" freq="60" file="detector_output.xml"/>
    <inductionLoop id="det_630143603_0" lane="630143603_0" pos="68.25" freq="60" file="detector_output.xml"/>
    <inductionLoop id="det_630143603_1" lane="630143603_1" pos="68.25" freq="60" file="detector_output.xml"/>
    <inductionLoop id="det_630143603_2" lane="630143603_2" pos="68.25" freq="60" file="detector_output.xml"/>
    <inductionLoop id="det_630143603_3" lane="630143603_3" pos="68.25" freq="60" file="detector_output.xml"/>
    <inductionLoop id="det_640278675_0" lane="640278675_0" pos="11.15" freq="60" file="detector_output.xml"/>
    <inductionLoop id="det_640278675_1" lane="640278675_1" pos="11.15" freq="60" file="detector_output.xml"/>
    <inductionLoop id="det_640278675_2" lane="640278675_2" pos="11.15" freq="60" file="detector_output.xml"/>
    <inductionLoop id="det_647912841#1_0" lane="647912841#1_0" pos="84.11" freq="60" file="detector_output.xml"/>
    <inductionLoop id="det_746474100_0" lane="746474100_0" pos="31.049999999999997" freq="60" file="detector_output.xml"/>
    <inductionLoop id="det_746474100_1" lane="746474100_1" pos="31.049999999999997" freq="60" file="detector_output.xml"/>
    <inductionLoop id="det_755844256_0" lane="755844256_0" pos="29.23" freq="60" file="detector_output.xml"/>
    <inductionLoop id="det_755844258#2_0" lane="755844258#2_0" pos="65.06" freq="60" file="detector_output.xml"/>
    <inductionLoop id="det_755844259_0" lane="755844259_0" pos="28.96" freq="60" file="detector_output.xml"/>
    <inductionLoop id="det_755844259_1" lane="755844259_1" pos="28.96" freq="60" file="detector_output.xml"/>
    <inductionLoop id="det_755844259_2" lane="755844259_2" pos="28.96" freq="60" file="detector_output.xml"/>
    <inductionLoop id="det_755844260#0_0" lane="755844260#0_0" pos="33.66" freq="60" file="detector_output.xml"/>
    <inductionLoop id="det_755844260#0_1" lane="755844260#0_1" pos="33.66" freq="60" file="detector_output.xml"/>
    <inductionLoop id="det_755844260#0_2" lane="755844260#0_2" pos="33.66" freq="60" file="detector_output.xml"/>
    <inductionLoop id="det_755844261#0_0" lane="755844261#0_0" pos="40.46" freq="60" file="detector_output.xml"/>
    <inductionLoop id="det_755844261#0_1" lane="755844261#0_1" pos="40.46" freq="60" file="detector_output.xml"/>
    <inductionLoop id="det_755844261#0_2" lane="755844261#0_2" pos="40.46" freq="60" file="detector_output.xml"/>
    <inductionLoop id="det_755844262#0_0" lane="755844262#0_0" pos="28.54" freq="60" file="detector_output.xml"/>
    <inductionLoop id="det_755844262#0_1" lane="755844262#0_1" pos="28.54" freq="60" file="detector_output.xml"/>
    <inductionLoop id="det_755844262#0_2" lane="755844262#0_2" pos="28.54" freq="60" file="detector_output.xml"/>
    <inductionLoop id="det_755844263_0" lane="755844263_0" pos="21.96" freq="60" file="detector_output.xml"/>
    <inductionLoop id="det_755844263_1" lane="755844263_1" pos="21.96" freq="60" file="detector_output.xml"/>
    <inductionLoop id="det_755844263_2" lane="755844263_2" pos="21.96" freq="60" file="detector_output.xml"/>
    <inductionLoop id="det_755844281#0_0" lane="755844281#0_0" pos="57.26" freq="60" file="detector_output.xml"/>
    <inductionLoop id="det_755844281#0_1" lane="755844281#0_1" pos="57.26" freq="60" file="detector_output.xml"/>
    <inductionLoop id="det_755844281#0_2" lane="755844281#0_2" pos="57.26" freq="60" file="detector_output.xml"/>
    <inductionLoop id="det_755844281#0_3" lane="755844281#0_3" pos="57.26" freq="60" file="detector_output.xml"/>
</additional>
