<?xml version="1.0" encoding="UTF-8"?>

<!-- generated on 2025-06-25 00:13:26.301671 by osmWebWizard.py UNKNOWN
<configuration>
    <net-file value="/Users/nedasarbalavandeymir/Sumo/2025-06-25-00-12-39/osm.net.xml.gz"/>
    <output-trip-file value="/Users/nedasarbalavandeymir/Sumo/2025-06-25-00-12-39/osm.passenger.trips.xml"/>
    <route-file value="/Users/nedasarbalavandeymir/Sumo/2025-06-25-00-12-39/osm.passenger.rou.xml"/>
    <prefix value="veh"/>
    <trip-attributes value="departLane=&quot;best&quot;"/>
    <fringe-start-attributes value="departSpeed=&quot;max&quot;"/>
    <vehicle-class value="passenger"/>
    <lanes value="True"/>
    <fringe-factor value="5"/>
    <allow-fringe.min-length value="1000.0"/>
    <via-edge-types value="highway.motorway,highway.motorway_link,highway.trunk_link,highway.primary_link,highway.secondary_link,highway.tertiary_link"/>
    <min-distance value="300.0"/>
    <min-distance.fringe value="10.0"/>
    <remove-loops value="True"/>
    <validate value="True"/>
    <insertion-density value="12.0"/>
</configuration>
-->

<!-- generated on 2025-06-25 00:13:26 by Eclipse SUMO duarouter Version 1.22.0
<duarouterConfiguration xmlns:xsi="http://www.w3.org/2001/XMLSchema-instance" xsi:noNamespaceSchemaLocation="http://sumo.dlr.de/xsd/duarouterConfiguration.xsd">

    <input>
        <net-file value="/Users/nedasarbalavandeymir/Sumo/2025-06-25-00-12-39/osm.net.xml.gz"/>
        <route-files value="/Users/nedasarbalavandeymir/Sumo/2025-06-25-00-12-39/osm.passenger.trips.xml"/>
    </input>

    <output>
        <output-file value="/Users/nedasarbalavandeymir/Sumo/2025-06-25-00-12-39/osm.passenger.trips.xml.tmp"/>
        <alternatives-output value="NUL"/>
        <write-trips value="true"/>
    </output>

    <processing>
        <remove-loops value="true"/>
    </processing>

    <time>
        <begin value="0.0"/>
        <end value="3600.0"/>
    </time>

    <report>
        <no-warnings value="true"/>
        <ignore-errors value="true"/>
        <no-step-log value="true"/>
    </report>

</duarouterConfiguration>
-->

<routes xmlns:xsi="http://www.w3.org/2001/XMLSchema-instance" xsi:noNamespaceSchemaLocation="http://sumo.dlr.de/xsd/routes_file.xsd">
    <vType id="veh_passenger" vClass="passenger"/>
    <trip id="veh0" type="veh_passenger" depart="0.00" departLane="best" from="405544796#10" to="-1194285982#0"/>
    <trip id="veh1" type="veh_passenger" depart="1.89" departLane="best" from="-406259064#9" to="-405276988#3"/>
    <trip id="veh2" type="veh_passenger" depart="3.78" departLane="best" from="406215685#3" to="405546355"/>
    <trip id="veh3" type="veh_passenger" depart="5.68" departLane="best" from="13299288#3" to="-1194285984#4"/>
    <trip id="veh4" type="veh_passenger" depart="7.57" departLane="best" from="13471953#3" to="13398520#2"/>
    <trip id="veh5" type="veh_passenger" depart="9.46" departLane="best" from="770571741" to="-13463892#1"/>
    <trip id="veh6" type="veh_passenger" depart="11.35" departLane="best" from="405544796#8" to="13448799#2"/>
    <trip id="veh7" type="veh_passenger" depart="13.24" departLane="best" departSpeed="max" from="-156466455" to="334267468#10"/>
    <trip id="veh8" type="veh_passenger" depart="15.14" departLane="best" from="406242637#0" to="-1051736211#16"/>
    <trip id="veh9" type="veh_passenger" depart="17.03" departLane="best" from="406242635#7" to="406210056#0"/>
    <trip id="veh11" type="veh_passenger" depart="20.81" departLane="best" from="690987761" to="105057057#1"/>
    <trip id="veh12" type="veh_passenger" depart="22.71" departLane="best" from="-13325540#0" to="-13345308#13"/>
    <trip id="veh13" type="veh_passenger" depart="24.60" departLane="best" from="406259064#6" to="334631554#0"/>
    <trip id="veh14" type="veh_passenger" depart="26.49" departLane="best" from="406242635#8" to="406215685#3"/>
    <trip id="veh15" type="veh_passenger" depart="28.38" departLane="best" departSpeed="max" from="13426673#0" to="406232649#0"/>
    <trip id="veh16" type="veh_passenger" depart="30.27" departLane="best" from="1166308294#26" to="13461229"/>
    <trip id="veh18" type="veh_passenger" depart="34.06" departLane="best" from="414764043" to="-202756206#1"/>
    <trip id="veh19" type="veh_passenger" depart="35.95" departLane="best" from="-406210052#6" to="13287422#1"/>
    <trip id="veh20" type="veh_passenger" depart="37.84" departLane="best" from="-24672326" to="692908076#4"/>
    <trip id="veh21" type="veh_passenger" depart="39.73" departLane="best" from="-13315528#13" to="406210052#6"/>
    <trip id="veh22" type="veh_passenger" depart="41.63" departLane="best" from="-13345308#18" to="569214584#7"/>
    <trip id="veh23" type="veh_passenger" depart="43.52" departLane="best" from="405544793#1" to="-1194285981#1"/>
    <trip id="veh24" type="veh_passenger" depart="45.41" departLane="best" from="1090736692#3" to="13471953#3"/>
    <trip id="veh25" type="veh_passenger" depart="47.30" departLane="best" from="-406259063#1" to="604060296#4"/>
    <trip id="veh26" type="veh_passenger" depart="49.19" departLane="best" from="405544796#7" to="405276417#1"/>
    <trip id="veh27" type="veh_passenger" depart="51.09" departLane="best" from="-13408259" to="406215685#3"/>
    <trip id="veh28" type="veh_passenger" depart="52.98" departLane="best" from="-13399210#6" to="1264201017"/>
    <trip id="veh29" type="veh_passenger" depart="54.87" departLane="best" from="755844278#2" to="405544796#7"/>
    <trip id="veh30" type="veh_passenger" depart="56.76" departLane="best" from="-13460918#1" to="405546357#2"/>
    <trip id="veh31" type="veh_passenger" depart="58.65" departLane="best" from="406259062#1" to="1008405679"/>
    <trip id="veh32" type="veh_passenger" depart="60.55" departLane="best" from="-271237819" to="-1194285986"/>
    <trip id="veh33" type="veh_passenger" depart="62.44" departLane="best" from="72011935#4" to="-406503367#0"/>
    <trip id="veh34" type="veh_passenger" depart="64.33" departLane="best" from="13463892#18" to="604060296#8"/>
    <trip id="veh35" type="veh_passenger" depart="66.22" departLane="best" from="525615993" to="1014617514#0"/>
    <trip id="veh36" type="veh_passenger" depart="68.12" departLane="best" from="405545577#1" to="13287422#6"/>
    <trip id="veh37" type="veh_passenger" depart="70.01" departLane="best" from="59712276#3" to="13360156"/>
    <trip id="veh38" type="veh_passenger" depart="71.90" departLane="best" from="-406259062#0" to="-406259061#4"/>
    <trip id="veh39" type="veh_passenger" depart="73.79" departLane="best" from="-13463856#4" to="-406259798"/>
    <trip id="veh40" type="veh_passenger" depart="75.68" departLane="best" from="202756206#2" to="59712271#7"/>
    <trip id="veh41" type="veh_passenger" depart="77.58" departLane="best" from="1324864130#1" to="-292716907"/>
    <trip id="veh42" type="veh_passenger" depart="79.47" departLane="best" from="982784187#0" to="13399210#3"/>
    <trip id="veh43" type="veh_passenger" depart="81.36" departLane="best" from="13323113#4" to="13287422#13"/>
    <trip id="veh44" type="veh_passenger" depart="83.25" departLane="best" from="-13355868#0" to="405544793#1"/>
    <trip id="veh45" type="veh_passenger" depart="85.14" departLane="best" from="406241587#10" to="13315528#0"/>
    <trip id="veh46" type="veh_passenger" depart="87.04" departLane="best" departSpeed="max" from="-13304511#2" to="1324864130#0"/>
    <trip id="veh47" type="veh_passenger" depart="88.93" departLane="best" from="929022781#1" to="-13426673#1"/>
    <trip id="veh48" type="veh_passenger" depart="90.82" departLane="best" from="755844257#0" to="-4581191#3"/>
    <trip id="veh49" type="veh_passenger" depart="92.71" departLane="best" from="1365892809" to="406215666#6"/>
    <trip id="veh50" type="veh_passenger" depart="94.60" departLane="best" from="405546353" to="13435460#13"/>
    <trip id="veh51" type="veh_passenger" depart="96.50" departLane="best" from="-406259063#1" to="405544796#7"/>
    <trip id="veh52" type="veh_passenger" depart="98.39" departLane="best" departSpeed="max" from="-13355868#1" to="-13317660#5"/>
    <trip id="veh53" type="veh_passenger" depart="100.28" departLane="best" from="-13329510#0" to="-690987761"/>
    <trip id="veh54" type="veh_passenger" depart="102.17" departLane="best" from="525615993" to="406259812"/>
    <trip id="veh55" type="veh_passenger" depart="104.07" departLane="best" from="-13387358#13" to="-13435460#10"/>
    <trip id="veh56" type="veh_passenger" depart="105.96" departLane="best" from="-586356925#3" to="405544796#6"/>
    <trip id="veh57" type="veh_passenger" depart="107.85" departLane="best" from="334267468#9" to="-13399406"/>
    <trip id="veh58" type="veh_passenger" depart="109.74" departLane="best" from="406231999" to="13435466#1"/>
    <trip id="veh59" type="veh_passenger" depart="111.63" departLane="best" from="406232664#0" to="-13432980#0"/>
    <trip id="veh60" type="veh_passenger" depart="113.53" departLane="best" from="-1008405678#1" to="1036500992"/>
    <trip id="veh61" type="veh_passenger" depart="115.42" departLane="best" from="-1166308294#17" to="604060294#0"/>
    <trip id="veh62" type="veh_passenger" depart="117.31" departLane="best" from="-569214584#5" to="406259064#2"/>
    <trip id="veh63" type="veh_passenger" depart="119.20" departLane="best" from="-692908076#0" to="13293747#2"/>
    <trip id="veh64" type="veh_passenger" depart="121.09" departLane="best" from="-569214584#2" to="630143602"/>
    <trip id="veh65" type="veh_passenger" depart="122.99" departLane="best" from="-13315528#9" to="13381895#1"/>
    <trip id="veh66" type="veh_passenger" depart="124.88" departLane="best" departSpeed="max" from="-13306938" to="406232651"/>
    <trip id="veh67" type="veh_passenger" depart="126.77" departLane="best" from="406232641#0" to="13373063#2"/>
    <trip id="veh68" type="veh_passenger" depart="128.66" departLane="best" from="13360316#18" to="13460918#4"/>
    <trip id="veh69" type="veh_passenger" depart="130.55" departLane="best" from="-406259062#0" to="59712267#1"/>
    <trip id="veh70" type="veh_passenger" depart="132.45" departLane="best" from="13304511#0" to="-202756206#0"/>
    <trip id="veh72" type="veh_passenger" depart="136.23" departLane="best" from="-13460918#10" to="1008405678#1"/>
    <trip id="veh73" type="veh_passenger" depart="138.12" departLane="best" from="-85355565#1" to="405545577#2"/>
    <trip id="veh74" type="veh_passenger" depart="140.01" departLane="best" from="-13315528#10" to="13405896"/>
    <trip id="veh75" type="veh_passenger" depart="141.91" departLane="best" from="-13367374#0" to="-405277520#0"/>
    <trip id="veh76" type="veh_passenger" depart="143.80" departLane="best" from="1020225870#0" to="334267468#10"/>
    <trip id="veh77" type="veh_passenger" depart="145.69" departLane="best" from="-292716907" to="-340769362#1"/>
    <trip id="veh78" type="veh_passenger" depart="147.58" departLane="best" from="-13307004#12" to="405544796#0"/>
    <trip id="veh79" type="veh_passenger" depart="149.48" departLane="best" from="-271237819" to="59712276#4"/>
    <trip id="veh80" type="veh_passenger" depart="151.37" departLane="best" from="406504587" to="13307004#8"/>
    <trip id="veh81" type="veh_passenger" depart="153.26" departLane="best" from="405547258#1" to="405546350#0"/>
    <trip id="veh82" type="veh_passenger" depart="155.15" departLane="best" from="-13467852#1" to="13382631#3"/>
    <trip id="veh83" type="veh_passenger" depart="157.04" departLane="best" from="604060295#0" to="192503236#0"/>
    <trip id="veh84" type="veh_passenger" depart="158.94" departLane="best" from="13360316#10" to="406241587#5"/>
    <trip id="veh85" type="veh_passenger" depart="160.83" departLane="best" from="406242635#9" to="-13448910#0"/>
    <trip id="veh86" type="veh_passenger" depart="162.72" departLane="best" from="-13332380#0" to="13315528#9"/>
    <trip id="veh87" type="veh_passenger" depart="164.61" departLane="best" from="13304511#1" to="13367374#1"/>
    <trip id="veh88" type="veh_passenger" depart="166.50" departLane="best" from="406215666#7" to="405546352"/>
    <trip id="veh89" type="veh_passenger" depart="168.40" departLane="best" from="755844268#3" to="-13345308#2"/>
    <trip id="veh90" type="veh_passenger" depart="170.29" departLane="best" from="13281833#0" to="105057079#5"/>
    <trip id="veh91" type="veh_passenger" depart="172.18" departLane="best" from="414764043" to="-406259062#1"/>
    <trip id="veh92" type="veh_passenger" depart="174.07" departLane="best" from="13435460#3" to="13345308#8"/>
    <trip id="veh93" type="veh_passenger" depart="175.96" departLane="best" from="13299288#3" to="586356925#1"/>
    <trip id="veh94" type="veh_passenger" depart="177.86" departLane="best" from="-406219020" to="59712283#6"/>
    <trip id="veh95" type="veh_passenger" depart="179.75" departLane="best" from="-13315528#5" to="-4581191#4"/>
    <trip id="veh96" type="veh_passenger" depart="181.64" departLane="best" from="13435466#8" to="-13287422#24"/>
    <trip id="veh97" type="veh_passenger" depart="183.53" departLane="best" from="982784187#1" to="406259064#9"/>
    <trip id="veh98" type="veh_passenger" depart="185.43" departLane="best" from="750661576#3" to="604060286#1"/>
    <trip id="veh99" type="veh_passenger" depart="187.32" departLane="best" from="406259064#8" to="13417734#1"/>
    <trip id="veh100" type="veh_passenger" depart="189.21" departLane="best" from="-13372985#17" to="-202756206#2"/>
    <trip id="veh101" type="veh_passenger" depart="191.10" departLane="best" from="-406259062#0" to="406241587#4"/>
    <trip id="veh102" type="veh_passenger" depart="192.99" departLane="best" from="-13332367#1" to="13315528#1"/>
    <trip id="veh103" type="veh_passenger" depart="194.89" departLane="best" from="690987761" to="929022781#0"/>
    <trip id="veh104" type="veh_passenger" depart="196.78" departLane="best" departSpeed="max" from="13448910#0" to="406215666#2"/>
    <trip id="veh105" type="veh_passenger" depart="198.67" departLane="best" departSpeed="max" from="-13387500" to="-72011935#6"/>
    <trip id="veh106" type="veh_passenger" depart="200.56" departLane="best" from="750661576#2" to="-202756206#3"/>
    <trip id="veh107" type="veh_passenger" depart="202.45" departLane="best" from="-13434105#0" to="406232000#0"/>
    <trip id="veh108" type="veh_passenger" depart="204.35" departLane="best" from="-13287422#7" to="259846930#2"/>
    <trip id="veh109" type="veh_passenger" depart="206.24" departLane="best" from="13387358#20" to="415101865#2"/>
    <trip id="veh110" type="veh_passenger" depart="208.13" departLane="best" from="-13395388#0" to="-72011935#2"/>
    <trip id="veh111" type="veh_passenger" depart="210.02" departLane="best" from="-13315528#13" to="-13448799#0"/>
    <trip id="veh112" type="veh_passenger" depart="211.91" departLane="best" from="334267468#10" to="405546354"/>
    <trip id="veh113" type="veh_passenger" depart="213.81" departLane="best" from="405277520#0" to="13372985#14"/>
    <trip id="veh114" type="veh_passenger" depart="215.70" departLane="best" from="59712267#7" to="406259061#3"/>
    <trip id="veh116" type="veh_passenger" depart="219.48" departLane="best" from="13293747#7" to="259846930#0"/>
    <trip id="veh117" type="veh_passenger" depart="221.37" departLane="best" departSpeed="max" from="13404578#0" to="604060296#1"/>
    <trip id="veh118" type="veh_passenger" depart="223.27" departLane="best" departSpeed="max" from="-13461229" to="406215647#0"/>
    <trip id="veh119" type="veh_passenger" depart="225.16" departLane="best" from="405547258#2" to="13287422#7"/>
    <trip id="veh120" type="veh_passenger" depart="227.05" departLane="best" from="405545584#2" to="-72011935#9"/>
    <trip id="veh121" type="veh_passenger" depart="228.94" departLane="best" from="72011935#5" to="406232000#1"/>
    <trip id="veh122" type="veh_passenger" depart="230.84" departLane="best" from="-13307004#17" to="13360156"/>
    <trip id="veh123" type="veh_passenger" depart="232.73" departLane="best" from="982784187#1" to="929022781#1"/>
    <trip id="veh124" type="veh_passenger" depart="234.62" departLane="best" from="-13307004#19" to="-202756206#1"/>
    <trip id="veh125" type="veh_passenger" depart="236.51" departLane="best" from="-406259062#0" to="604060296#0"/>
    <trip id="veh126" type="veh_passenger" depart="238.40" departLane="best" from="-586356925#5" to="59712267#7"/>
    <trip id="veh127" type="veh_passenger" depart="240.30" departLane="best" from="1090736692#3" to="-13404578#1"/>
    <trip id="veh128" type="veh_passenger" depart="242.19" departLane="best" departSpeed="max" from="406242930#0" to="406215616#0"/>
    <trip id="veh129" type="veh_passenger" depart="244.08" departLane="best" from="334631993#1" to="755844278#1"/>
    <trip id="veh130" type="veh_passenger" depart="245.97" departLane="best" from="405545577#0" to="-1051736211#5"/>
    <trip id="veh131" type="veh_passenger" depart="247.86" departLane="best" from="406242646#0" to="-72011935#9"/>
    <trip id="veh132" type="veh_passenger" depart="249.76" departLane="best" from="405545580#1" to="604060296#5"/>
    <trip id="veh133" type="veh_passenger" depart="251.65" departLane="best" from="-13373063#11" to="-13367374#2"/>
    <trip id="veh134" type="veh_passenger" depart="253.54" departLane="best" from="-13354140#3" to="13461229"/>
    <trip id="veh135" type="veh_passenger" depart="255.43" departLane="best" from="-406259064#6" to="334631554#0"/>
    <trip id="veh136" type="veh_passenger" depart="257.32" departLane="best" from="406215634#0" to="-13463892#8"/>
    <trip id="veh137" type="veh_passenger" depart="259.22" departLane="best" from="405544792#0" to="406259812"/>
    <trip id="veh138" type="veh_passenger" depart="261.11" departLane="best" from="13372985#7" to="59712276#4"/>
    <trip id="veh139" type="veh_passenger" depart="263.00" departLane="best" from="406259064#3" to="-13335414#0"/>
    <trip id="veh140" type="veh_passenger" depart="264.89" departLane="best" from="13304511#1" to="569214584#3"/>
    <trip id="veh141" type="veh_passenger" depart="266.78" departLane="best" departSpeed="max" from="-105057012" to="406233344"/>
    <trip id="veh142" type="veh_passenger" depart="268.68" departLane="best" from="405544795#0" to="406259780#2"/>
    <trip id="veh143" type="veh_passenger" depart="270.57" departLane="best" from="406215698#2" to="13460918#9"/>
    <trip id="veh144" type="veh_passenger" depart="272.46" departLane="best" from="-13307004#12" to="1365892809"/>
    <trip id="veh145" type="veh_passenger" depart="274.35" departLane="best" from="-13307004#7" to="59712270#0"/>
    <trip id="veh146" type="veh_passenger" depart="276.25" departLane="best" from="59712271#3" to="13448799#4"/>
    <trip id="veh147" type="veh_passenger" depart="278.14" departLane="best" from="406258115#0" to="24672357#0"/>
    <trip id="veh148" type="veh_passenger" depart="280.03" departLane="best" from="-13387358#22" to="-13373063#14"/>
    <trip id="veh149" type="veh_passenger" depart="281.92" departLane="best" from="-692908076#4" to="59712274"/>
    <trip id="veh150" type="veh_passenger" depart="283.81" departLane="best" from="406241587#7" to="-4581191#3"/>
    <trip id="veh151" type="veh_passenger" depart="285.71" departLane="best" from="59712270#4" to="-13471953#5"/>
    <trip id="veh152" type="veh_passenger" depart="287.60" departLane="best" from="406219019" to="-13354140#0"/>
    <trip id="veh153" type="veh_passenger" depart="289.49" departLane="best" from="259846930#3" to="59712270#2"/>
    <trip id="veh155" type="veh_passenger" depart="293.27" departLane="best" departSpeed="max" from="-13387500" to="604060294#0"/>
    <trip id="veh157" type="veh_passenger" depart="297.06" departLane="best" from="406242637#1" to="59712267#9"/>
    <trip id="veh158" type="veh_passenger" depart="298.95" departLane="best" from="-1166308294#7" to="406216740"/>
    <trip id="veh159" type="veh_passenger" depart="300.84" departLane="best" from="1008405679" to="604060295#0"/>
    <trip id="veh160" type="veh_passenger" depart="302.73" departLane="best" from="406241606" to="4619023#2"/>
    <trip id="veh161" type="veh_passenger" depart="304.63" departLane="best" from="406242637#1" to="406264570#3"/>
    <trip id="veh162" type="veh_passenger" depart="306.52" departLane="best" from="406233349#0" to="-13360316#10"/>
    <trip id="veh163" type="veh_passenger" depart="308.41" departLane="best" from="202756206#0" to="406242924#0"/>
    <trip id="veh164" type="veh_passenger" depart="310.30" departLane="best" from="13345308#10" to="-755844257#0"/>
    <trip id="veh165" type="veh_passenger" depart="312.20" departLane="best" from="406241587#6" to="-405547258#1"/>
    <trip id="veh166" type="veh_passenger" depart="314.09" departLane="best" from="1166308294#4" to="-13460918#5"/>
    <trip id="veh167" type="veh_passenger" depart="315.98" departLane="best" from="-85355565#0" to="525615993"/>
    <trip id="veh168" type="veh_passenger" depart="317.87" departLane="best" departSpeed="max" from="750661576#0" to="586356925#3"/>
    <trip id="veh169" type="veh_passenger" depart="319.76" departLane="best" from="405544796#2" to="13293747#8"/>
    <trip id="veh170" type="veh_passenger" depart="321.66" departLane="best" from="755844267" to="-13435460#11"/>
    <trip id="veh171" type="veh_passenger" depart="323.55" departLane="best" from="604060296#3" to="-13367374#2"/>
    <trip id="veh172" type="veh_passenger" depart="325.44" departLane="best" from="750661576#7" to="-13435460#1"/>
    <trip id="veh173" type="veh_passenger" depart="327.33" departLane="best" from="72011935#4" to="-406264569#1"/>
    <trip id="veh174" type="veh_passenger" depart="329.22" departLane="best" from="-13354938#0" to="-13317660#5"/>
    <trip id="veh175" type="veh_passenger" depart="331.12" departLane="best" from="406215666#7" to="1014021506"/>
    <trip id="veh176" type="veh_passenger" depart="333.01" departLane="best" from="334267468#7" to="13400749"/>
    <trip id="veh177" type="veh_passenger" depart="334.90" departLane="best" from="1194285984#2" to="-202756206#0"/>
    <trip id="veh178" type="veh_passenger" depart="336.79" departLane="best" departSpeed="max" from="-406259058#3" to="406215621#0"/>
    <trip id="veh179" type="veh_passenger" depart="338.68" departLane="best" from="-1008405678#4" to="604060286#0"/>
    <trip id="veh180" type="veh_passenger" depart="340.58" departLane="best" from="13426673#4" to="406215666#4"/>
    <trip id="veh181" type="veh_passenger" depart="342.47" departLane="best" from="406216724#0" to="405546350#1"/>
    <trip id="veh182" type="veh_passenger" depart="344.36" departLane="best" from="1055271834" to="-13307004#5"/>
    <trip id="veh183" type="veh_passenger" depart="346.25" departLane="best" from="405545581#0" to="105057031#1"/>
    <trip id="veh184" type="veh_passenger" depart="348.14" departLane="best" from="72011935#3" to="414764043"/>
    <trip id="veh185" type="veh_passenger" depart="350.04" departLane="best" from="406215634#1" to="-723708758"/>
    <trip id="veh186" type="veh_passenger" depart="351.93" departLane="best" from="13281833#0" to="-72011935#5"/>
    <trip id="veh187" type="veh_passenger" depart="353.82" departLane="best" from="-13372985#12" to="13310793#4"/>
    <trip id="veh188" type="veh_passenger" depart="355.71" departLane="best" from="604060296#4" to="405546355"/>
    <trip id="veh189" type="veh_passenger" depart="357.61" departLane="best" from="59712271#2" to="405543905#0"/>
    <trip id="veh190" type="veh_passenger" depart="359.50" departLane="best" from="-1008405678#1" to="-649530284#2"/>
    <trip id="veh191" type="veh_passenger" depart="361.39" departLane="best" from="-13307004#18" to="204085600#0"/>
    <trip id="veh192" type="veh_passenger" depart="363.28" departLane="best" from="405545577#0" to="13360316#5"/>
    <trip id="veh193" type="veh_passenger" depart="365.17" departLane="best" from="-13315528#4" to="-202756206#2"/>
    <trip id="veh194" type="veh_passenger" depart="367.07" departLane="best" from="13360316#12" to="59712276#0"/>
    <trip id="veh195" type="veh_passenger" depart="368.96" departLane="best" from="406241587#7" to="-13426333#3"/>
    <trip id="veh196" type="veh_passenger" depart="370.85" departLane="best" from="-13315528#8" to="-13404578#7"/>
    <trip id="veh197" type="veh_passenger" depart="372.74" departLane="best" from="405543907#8" to="105057057#4"/>
    <trip id="veh198" type="veh_passenger" depart="374.63" departLane="best" from="406242646#0" to="406232000#1"/>
    <trip id="veh199" type="veh_passenger" depart="376.53" departLane="best" from="405546347#0" to="-405277520#0"/>
    <trip id="veh200" type="veh_passenger" depart="378.42" departLane="best" departSpeed="max" from="-13448910#2" to="-1194285981#1"/>
    <trip id="veh201" type="veh_passenger" depart="380.31" departLane="best" from="-406210056#2" to="13372985#18"/>
    <trip id="veh202" type="veh_passenger" depart="382.20" departLane="best" departSpeed="max" from="13287980" to="405544795#0"/>
    <trip id="veh203" type="veh_passenger" depart="384.09" departLane="best" from="-13435466#9" to="406210052#5"/>
    <trip id="veh204" type="veh_passenger" depart="385.99" departLane="best" from="13373063#6" to="-406259061#0"/>
    <trip id="veh205" type="veh_passenger" depart="387.88" departLane="best" from="405545577#1" to="-1051736211#13"/>
    <trip id="veh206" type="veh_passenger" depart="389.77" departLane="best" from="406219017#0" to="406233344"/>
    <trip id="veh207" type="veh_passenger" depart="391.66" departLane="best" from="-13354140#2" to="13315528#12"/>
    <trip id="veh209" type="veh_passenger" depart="395.45" departLane="best" departSpeed="max" from="13399406" to="-13287422#23"/>
    <trip id="veh210" type="veh_passenger" depart="397.34" departLane="best" from="-406219018" to="414764043"/>
    <trip id="veh211" type="veh_passenger" depart="399.23" departLane="best" departSpeed="max" from="13335414#0" to="406242637#1"/>
    <trip id="veh212" type="veh_passenger" depart="401.12" departLane="best" from="405545581#3" to="755844278#2"/>
    <trip id="veh213" type="veh_passenger" depart="403.02" departLane="best" from="334267468#10" to="640278675"/>
    <trip id="veh214" type="veh_passenger" depart="404.91" departLane="best" from="59712267#8" to="-405277520#2"/>
    <trip id="veh215" type="veh_passenger" depart="406.80" departLane="best" from="406215634#1" to="13398520#0"/>
    <trip id="veh216" type="veh_passenger" depart="408.69" departLane="best" departSpeed="max" from="406242930#0" to="13448910#2"/>
    <trip id="veh217" type="veh_passenger" depart="410.58" departLane="best" from="59712270#3" to="406229601"/>
    <trip id="veh218" type="veh_passenger" depart="412.48" departLane="best" from="13360316#16" to="-406259065#2"/>
    <trip id="veh219" type="veh_passenger" depart="414.37" departLane="best" from="-406217835" to="405544796#5"/>
    <trip id="veh220" type="veh_passenger" depart="416.26" departLane="best" from="406232641#0" to="13412607#1"/>
    <trip id="veh221" type="veh_passenger" depart="418.15" departLane="best" from="405543907#3" to="-4581191#4"/>
    <trip id="veh222" type="veh_passenger" depart="420.04" departLane="best" from="-13315528#1" to="-604060314#1"/>
    <trip id="veh223" type="veh_passenger" depart="421.94" departLane="best" from="-406259064#6" to="1020225870#0"/>
    <trip id="veh224" type="veh_passenger" depart="423.83" departLane="best" from="13432980#3" to="13387358#21"/>
    <trip id="veh225" type="veh_passenger" depart="425.72" departLane="best" from="340769362#2" to="-406210052#2"/>
    <trip id="veh226" type="veh_passenger" depart="427.61" departLane="best" from="-406210056#2" to="-13304517#6"/>
    <trip id="veh227" type="veh_passenger" depart="429.50" departLane="best" from="13287422#2" to="-13447432"/>
    <trip id="veh228" type="veh_passenger" depart="431.40" departLane="best" departSpeed="max" from="-13293747#0" to="13467852#6"/>
    <trip id="veh229" type="veh_passenger" depart="433.29" departLane="best" from="-13293773#0" to="59712276#4"/>
    <trip id="veh230" type="veh_passenger" depart="435.18" departLane="best" from="202756206#1" to="-406210052#4"/>
    <trip id="veh231" type="veh_passenger" depart="437.07" departLane="best" from="406264570#0" to="406232658#0"/>
    <trip id="veh232" type="veh_passenger" depart="438.97" departLane="best" from="1166308294#7" to="-1051736211#14"/>
    <trip id="veh233" type="veh_passenger" depart="440.86" departLane="best" from="105057057#3" to="406232000#1"/>
    <trip id="veh234" type="veh_passenger" depart="442.75" departLane="best" from="-406259805" to="-690987761"/>
    <trip id="veh235" type="veh_passenger" depart="444.64" departLane="best" from="-13293747#6" to="406231999"/>
    <trip id="veh236" type="veh_passenger" depart="446.53" departLane="best" from="13435460#2" to="334267468#9"/>
    <trip id="veh237" type="veh_passenger" depart="448.43" departLane="best" departSpeed="max" from="-156466455" to="292716907"/>
    <trip id="veh238" type="veh_passenger" depart="450.32" departLane="best" from="13310793#7" to="-1194285984#3"/>
    <trip id="veh239" type="veh_passenger" depart="452.21" departLane="best" from="13287422#1" to="13417734#0"/>
    <trip id="veh240" type="veh_passenger" depart="454.10" departLane="best" departSpeed="max" from="13354140#0" to="-13373063#15"/>
    <trip id="veh241" type="veh_passenger" depart="455.99" departLane="best" from="405543904#0" to="-1194285984#0"/>
    <trip id="veh242" type="veh_passenger" depart="457.89" departLane="best" from="1264201012#1" to="13471148#1"/>
    <trip id="veh243" type="veh_passenger" depart="459.78" departLane="best" from="1194285982#1" to="405544796#8-AddedOffRampEdge"/>
    <trip id="veh244" type="veh_passenger" depart="461.67" departLane="best" from="-13373063#15" to="13360316#15"/>
    <trip id="veh245" type="veh_passenger" depart="463.56" departLane="best" from="-13287422#13" to="-1264201016"/>