<?xml version="1.0" encoding="UTF-8"?>

<!-- generated on 2025-06-25 00:13:28.093332 by osmWebWizard.py UNKNOWN
<configuration>
    <net-file value="/Users/nedasarbalavandeymir/Sumo/2025-06-25-00-12-39/osm.net.xml.gz"/>
    <output-trip-file value="/Users/nedasarbalavandeymir/Sumo/2025-06-25-00-12-39/osm.truck.trips.xml"/>
    <route-file value="/Users/nedasarbalavandeymir/Sumo/2025-06-25-00-12-39/osm.truck.rou.xml"/>
    <prefix value="truck"/>
    <trip-attributes value="departLane=&quot;best&quot;"/>
    <fringe-start-attributes value="departSpeed=&quot;max&quot;"/>
    <vehicle-class value="truck"/>
    <fringe-factor value="5"/>
    <vclass value="truck"/>
    <via-edge-types value="highway.motorway,highway.motorway_link,highway.trunk_link,highway.primary_link,highway.secondary_link,highway.tertiary_link"/>
    <min-distance value="600.0"/>
    <min-distance.fringe value="10.0"/>
    <remove-loops value="True"/>
    <validate value="True"/>
    <insertion-density value="8.0"/>
</configuration>
-->

<!-- generated on 2025-06-25 00:13:27 by Eclipse SUMO duarouter Version 1.22.0
<duarouterConfiguration xmlns:xsi="http://www.w3.org/2001/XMLSchema-instance" xsi:noNamespaceSchemaLocation="http://sumo.dlr.de/xsd/duarouterConfiguration.xsd">

    <input>
        <net-file value="/Users/nedasarbalavandeymir/Sumo/2025-06-25-00-12-39/osm.net.xml.gz"/>
        <route-files value="/Users/nedasarbalavandeymir/Sumo/2025-06-25-00-12-39/osm.truck.trips.xml"/>
    </input>

    <output>
        <output-file value="/Users/nedasarbalavandeymir/Sumo/2025-06-25-00-12-39/osm.truck.trips.xml.tmp"/>
        <alternatives-output value="NUL"/>
        <write-trips value="true"/>
    </output>

    <processing>
        <remove-loops value="true"/>
    </processing>

    <time>
        <begin value="0.0"/>
        <end value="3600.0"/>
    </time>

    <report>
        <no-warnings value="true"/>
        <ignore-errors value="true"/>
        <no-step-log value="true"/>
    </report>

</duarouterConfiguration>
-->

<routes xmlns:xsi="http://www.w3.org/2001/XMLSchema-instance" xsi:noNamespaceSchemaLocation="http://sumo.dlr.de/xsd/routes_file.xsd">
    <vType id="truck_truck" vClass="truck"/>
    <trip id="truck0" type="truck_truck" depart="0.00" departLane="best" from="-13387358#30" to="-1166308294#19"/>
    <trip id="truck1" type="truck_truck" depart="2.84" departLane="best" departSpeed="max" from="-13448910#2" to="-13411641#2"/>
    <trip id="truck2" type="truck_truck" depart="5.68" departLane="best" from="13471148#2" to="-13432980#2"/>
    <trip id="truck3" type="truck_truck" depart="8.51" departLane="best" from="105057031#0" to="-1166308294#3"/>
    <trip id="truck4" type="truck_truck" depart="11.35" departLane="best" departSpeed="max" from="-13398520#2" to="13306938"/>
    <trip id="truck5" type="truck_truck" depart="14.19" departLane="best" from="-1166308294#17" to="-13398520#1"/>
    <trip id="truck6" type="truck_truck" depart="17.03" departLane="best" departSpeed="max" from="13399210#0" to="13330540"/>
    <trip id="truck7" type="truck_truck" depart="19.87" departLane="best" from="-406210052#2" to="-1051736211#10"/>
    <trip id="truck8" type="truck_truck" depart="22.71" departLane="best" from="405546357#6" to="-13448910#1"/>
    <trip id="truck9" type="truck_truck" depart="25.54" departLane="best" departSpeed="max" from="-406259058#3" to="13372985#1"/>
    <trip id="truck10" type="truck_truck" depart="28.38" departLane="best" from="-604060314#2" to="406264569#0"/>
    <trip id="truck11" type="truck_truck" depart="31.22" departLane="best" from="406232641#0" to="13373063#13"/>
    <trip id="truck12" type="truck_truck" depart="34.06" departLane="best" from="405547258#1" to="13471953#5"/>
    <trip id="truck13" type="truck_truck" depart="36.90" departLane="best" from="-59712281#5" to="13345308#17"/>
    <trip id="truck15" type="truck_truck" depart="42.57" departLane="best" from="406241587#0" to="13360316#19"/>
    <trip id="truck16" type="truck_truck" depart="45.41" departLane="best" departSpeed="max" from="13448799#0" to="1264201017"/>
    <trip id="truck17" type="truck_truck" depart="48.25" departLane="best" from="13293773#1" to="-13426673#0"/>
    <trip id="truck18" type="truck_truck" depart="51.09" departLane="best" from="-13307004#9" to="13463892#19"/>
    <trip id="truck19" type="truck_truck" depart="53.92" departLane="best" from="13387358#23" to="-72011935#0"/>
    <trip id="truck20" type="truck_truck" depart="56.76" departLane="best" from="-569214584#2" to="-13404285"/>
    <trip id="truck21" type="truck_truck" depart="59.60" departLane="best" from="-13435466#6" to="59712283#4"/>
    <trip id="truck22" type="truck_truck" depart="62.44" departLane="best" from="13398520#1" to="13373063#8"/>
    <trip id="truck23" type="truck_truck" depart="65.28" departLane="best" from="-13372985#13" to="13471953#4"/>
    <trip id="truck24" type="truck_truck" depart="68.12" departLane="best" from="-13372140#0" to="762263573#0"/>
    <trip id="truck25" type="truck_truck" depart="70.95" departLane="best" from="755844275#2" to="13398520#1"/>
    <trip id="truck26" type="truck_truck" depart="73.79" departLane="best" from="13323117#0" to="13435460#14"/>
    <trip id="truck27" type="truck_truck" depart="76.63" departLane="best" from="406231973#1" to="405544796#9"/>
    <trip id="truck28" type="truck_truck" depart="79.47" departLane="best" from="13404578#11" to="-1166308294#7"/>
    <trip id="truck29" type="truck_truck" depart="82.31" departLane="best" from="-24672357#0" to="13463856#2"/>
    <trip id="truck30" type="truck_truck" depart="85.14" departLane="best" departSpeed="max" from="-13387500" to="604060288"/>
    <trip id="truck31" type="truck_truck" depart="87.98" departLane="best" from="406242645#0" to="-406215639#2"/>
    <trip id="truck32" type="truck_truck" depart="90.82" departLane="best" departSpeed="max" from="13399406" to="105057024#1"/>
    <trip id="truck33" type="truck_truck" depart="93.66" departLane="best" from="4581191#0" to="1264201012#1"/>
    <trip id="truck34" type="truck_truck" depart="96.50" departLane="best" from="-13435466#2" to="-13435460#6"/>
    <trip id="truck35" type="truck_truck" depart="99.33" departLane="best" from="13332367#0" to="13460918#10"/>
    <trip id="truck36" type="truck_truck" depart="102.17" departLane="best" from="13354938#0" to="-406504587"/>
    <trip id="truck37" type="truck_truck" depart="105.01" departLane="best" from="750661576#6" to="13404578#8"/>
    <trip id="truck38" type="truck_truck" depart="107.85" departLane="best" from="929022781#0" to="13307004#12"/>
    <trip id="truck39" type="truck_truck" depart="110.69" departLane="best" departSpeed="max" from="-13306938" to="-1264201018#2"/>
    <trip id="truck40" type="truck_truck" depart="113.53" departLane="best" from="-13315631#2" to="13387358#27"/>
    <trip id="truck41" type="truck_truck" depart="116.36" departLane="best" from="405545581#1" to="1051736211#16"/>
    <trip id="truck42" type="truck_truck" depart="119.20" departLane="best" from="-13287422#18" to="85355565#0"/>
    <trip id="truck43" type="truck_truck" depart="122.04" departLane="best" from="770571743" to="13315528#8"/>
    <trip id="truck44" type="truck_truck" depart="124.88" departLane="best" from="723708758" to="406242635#5"/>
    <trip id="truck45" type="truck_truck" depart="127.72" departLane="best" from="-1051736211#14" to="-13467844#0"/>
    <trip id="truck46" type="truck_truck" depart="130.55" departLane="best" departSpeed="max" from="13426673#0" to="13323113#4"/>
    <trip id="truck47" type="truck_truck" depart="133.39" departLane="best" from="-13435466#6" to="13398520#2"/>
    <trip id="truck48" type="truck_truck" depart="136.23" departLane="best" from="-13317660#2" to="1166308294#11"/>
    <trip id="truck49" type="truck_truck" depart="139.07" departLane="best" from="-1151395802#4" to="611495539"/>
    <trip id="truck50" type="truck_truck" depart="141.91" departLane="best" from="406242644#0" to="-13460918#3"/>
    <trip id="truck51" type="truck_truck" depart="144.75" departLane="best" from="-13287422#27" to="-13383857#3"/>
    <trip id="truck52" type="truck_truck" depart="147.58" departLane="best" from="43080181#1" to="406242649#5"/>
    <trip id="truck53" type="truck_truck" depart="150.42" departLane="best" from="-13467852#1" to="13395388#1"/>
    <trip id="truck54" type="truck_truck" depart="153.26" departLane="best" from="-13372985#19" to="13372140#1"/>
    <trip id="truck55" type="truck_truck" depart="156.10" departLane="best" from="340769362#0" to="13323117#1"/>
    <trip id="truck56" type="truck_truck" depart="158.94" departLane="best" from="405543907#7" to="13315631#0"/>
    <trip id="truck57" type="truck_truck" depart="161.77" departLane="best" from="-1008405678#1" to="-406259062#1"/>
    <trip id="truck58" type="truck_truck" depart="164.61" departLane="best" from="-1151395802#0" to="59712276#0"/>
    <trip id="truck59" type="truck_truck" depart="167.45" departLane="best" from="406242648#0" to="406229601"/>
    <trip id="truck60" type="truck_truck" depart="170.29" departLane="best" departSpeed="max" from="-156466455" to="13287422#16"/>
    <trip id="truck61" type="truck_truck" depart="173.13" departLane="best" from="406242647" to="604060296#3"/>
    <trip id="truck62" type="truck_truck" depart="175.96" departLane="best" from="-13304517#2" to="13293747#2"/>
    <trip id="truck63" type="truck_truck" depart="178.80" departLane="best" from="-13287422#29" to="-405276988#5"/>
    <trip id="truck64" type="truck_truck" depart="181.64" departLane="best" departSpeed="max" from="38855363" to="-13345308#7"/>
    <trip id="truck65" type="truck_truck" depart="184.48" departLane="best" from="-13435466#3" to="406242917#1"/>
    <trip id="truck66" type="truck_truck" depart="187.32" departLane="best" from="105057043#1" to="-13404285"/>
    <trip id="truck67" type="truck_truck" depart="190.16" departLane="best" from="-13387358#20" to="406210052#4"/>
    <trip id="truck68" type="truck_truck" depart="192.99" departLane="best" from="770571740" to="13400749"/>
    <trip id="truck69" type="truck_truck" depart="195.83" departLane="best" from="105057953" to="13307004#9"/>
    <trip id="truck70" type="truck_truck" depart="198.67" departLane="best" departSpeed="max" from="-13329510#2" to="13412607#0"/>
    <trip id="truck71" type="truck_truck" depart="201.51" departLane="best" departSpeed="max" from="-406259058#3" to="13372222"/>
    <trip id="truck72" type="truck_truck" depart="204.35" departLane="best" from="-13426333#0" to="13405668#1"/>
    <trip id="truck73" type="truck_truck" depart="207.18" departLane="best" from="13404578#10" to="43542243#2"/>
    <trip id="truck74" type="truck_truck" depart="210.02" departLane="best" from="406233348" to="-13287980"/>
    <trip id="truck75" type="truck_truck" depart="212.86" departLane="best" from="-13411641#0" to="13421073"/>
    <trip id="truck76" type="truck_truck" depart="215.70" departLane="best" departSpeed="max" from="-13389561#1" to="-13354140#0"/>
    <trip id="truck77" type="truck_truck" depart="218.54" departLane="best" from="59712271#7" to="13360156"/>
    <trip id="truck78" type="truck_truck" depart="221.37" departLane="best" from="1194285984#3" to="405546347#0"/>
    <trip id="truck79" type="truck_truck" depart="224.21" departLane="best" from="405547258#1" to="13387358#30"/>
    <trip id="truck80" type="truck_truck" depart="227.05" departLane="best" from="-13307004#2" to="1151395802#1"/>
    <trip id="truck81" type="truck_truck" depart="229.89" departLane="best" from="105057043#1" to="-13281275#0"/>
    <trip id="truck82" type="truck_truck" depart="232.73" departLane="best" from="13463892#4" to="-13426673#1"/>
    <trip id="truck83" type="truck_truck" depart="235.57" departLane="best" from="406231989" to="13315528#6"/>
    <trip id="truck84" type="truck_truck" depart="238.40" departLane="best" from="-762263571" to="-406503367#0"/>
    <trip id="truck85" type="truck_truck" depart="241.24" departLane="best" from="406241587#0" to="-13435466#2"/>
    <trip id="truck86" type="truck_truck" depart="244.08" departLane="best" from="105057031#0" to="-13463892#3"/>
    <trip id="truck87" type="truck_truck" depart="246.92" departLane="best" from="13426673#1" to="59712270#2"/>
    <trip id="truck88" type="truck_truck" depart="249.76" departLane="best" from="1051736211#15" to="406241587#4"/>
    <trip id="truck89" type="truck_truck" depart="252.59" departLane="best" from="13317660#0" to="-13281275#0"/>
    <trip id="truck90" type="truck_truck" depart="255.43" departLane="best" from="982784187#0" to="406232000#1"/>
    <trip id="truck91" type="truck_truck" depart="258.27" departLane="best" from="72011935#6" to="59712271#4"/>
    <trip id="truck92" type="truck_truck" depart="261.11" departLane="best" from="755844262#0" to="13373063#0"/>
    <trip id="truck93" type="truck_truck" depart="263.95" departLane="best" from="-13254895#1" to="-13404578#0"/>
    <trip id="truck94" type="truck_truck" depart="266.78" departLane="best" from="-755844257#0" to="13287422#18"/>
    <trip id="truck95" type="truck_truck" depart="269.62" departLane="best" from="-59712281#6" to="755844274"/>
    <trip id="truck96" type="truck_truck" depart="272.46" departLane="best" from="-13435466#3" to="405545584#2"/>
    <trip id="truck97" type="truck_truck" depart="275.30" departLane="best" from="13323113#4" to="13463892#4"/>
    <trip id="truck98" type="truck_truck" depart="278.14" departLane="best" from="-13360316#17" to="-24672357#0"/>
    <trip id="truck99" type="truck_truck" depart="280.98" departLane="best" from="72011935#5" to="13360316#4"/>
    <trip id="truck100" type="truck_truck" depart="283.81" departLane="best" from="-13315528#10" to="334267468#11"/>
    <trip id="truck101" type="truck_truck" depart="286.65" departLane="best" from="-13281833#0" to="13367374#3"/>
    <trip id="truck102" type="truck_truck" depart="289.49" departLane="best" from="-13287422#30" to="406241587#2"/>
    <trip id="truck103" type="truck_truck" depart="292.33" departLane="best" from="-13360316#3" to="715773496"/>
    <trip id="truck104" type="truck_truck" depart="295.17" departLane="best" from="-13293773#2" to="13387358#21"/>
    <trip id="truck105" type="truck_truck" depart="298.00" departLane="best" from="13360316#4" to="-13426673#6"/>
    <trip id="truck106" type="truck_truck" depart="300.84" departLane="best" departSpeed="max" from="-13405896" to="-13337552"/>
    <trip id="truck107" type="truck_truck" depart="303.68" departLane="best" from="-406259061#4" to="-13435460#3"/>
    <trip id="truck108" type="truck_truck" depart="306.52" departLane="best" from="13360316#3" to="13387358#12"/>
    <trip id="truck109" type="truck_truck" depart="309.36" departLane="best" from="105057024#4" to="-13367374#2"/>
    <trip id="truck110" type="truck_truck" depart="312.20" departLane="best" from="13304517#1" to="59712283#0"/>
    <trip id="truck111" type="truck_truck" depart="315.03" departLane="best" from="-13411641#1" to="105057024#1"/>
    <trip id="truck112" type="truck_truck" depart="317.87" departLane="best" from="-13408974" to="-340769362#2"/>
    <trip id="truck113" type="truck_truck" depart="320.71" departLane="best" from="24672357#1" to="334267468#7"/>
    <trip id="truck114" type="truck_truck" depart="323.55" departLane="best" from="-13287422#8" to="1264201012#0"/>
    <trip id="truck115" type="truck_truck" depart="326.39" departLane="best" from="-946809756" to="770571743"/>
    <trip id="truck116" type="truck_truck" depart="329.22" departLane="best" from="-13287422#9" to="-13404578#0"/>
    <trip id="truck117" type="truck_truck" depart="332.06" departLane="best" from="-13435466#3" to="59712281#6"/>
    <trip id="truck118" type="truck_truck" depart="334.90" departLane="best" from="406242649#3" to="406259061#2"/>
    <trip id="truck119" type="truck_truck" depart="337.74" departLane="best" from="4581191#5" to="13372985#13"/>
    <trip id="truck120" type="truck_truck" depart="340.58" departLane="best" from="406215698#1" to="13460918#4"/>
    <trip id="truck121" type="truck_truck" depart="343.41" departLane="best" from="-13399210#8" to="-1051736211#12"/>
    <trip id="truck122" type="truck_truck" depart="346.25" departLane="best" from="406215616#4" to="-340769362#1"/>
    <trip id="truck123" type="truck_truck" depart="349.09" departLane="best" departSpeed="max" from="13404578#0" to="59712283#6"/>
    <trip id="truck124" type="truck_truck" depart="351.93" departLane="best" from="-13345308#8" to="-13335414#0"/>
    <trip id="truck125" type="truck_truck" depart="354.77" departLane="best" from="-13315528#7" to="13345308#3"/>
    <trip id="truck126" type="truck_truck" depart="357.61" departLane="best" from="-13448799#2" to="13373063#15"/>
    <trip id="truck127" type="truck_truck" depart="360.44" departLane="best" from="-13463856#2" to="13399210#4"/>
    <trip id="truck128" type="truck_truck" depart="363.28" departLane="best" from="-13387358#20" to="-13460918#4"/>
    <trip id="truck129" type="truck_truck" depart="366.12" departLane="best" from="13281275#0" to="43542243#2"/>
    <trip id="truck130" type="truck_truck" depart="368.96" departLane="best" departSpeed="max" from="406231994" to="-13307004#8"/>
    <trip id="truck131" type="truck_truck" depart="371.80" departLane="best" from="105057043#1" to="-13463892#17"/>
    <trip id="truck132" type="truck_truck" depart="374.63" departLane="best" departSpeed="max" from="-105057012" to="405544796#10"/>
    <trip id="truck133" type="truck_truck" depart="377.47" departLane="best" from="-13387358#25" to="-13460918#1"/>
    <trip id="truck134" type="truck_truck" depart="380.31" departLane="best" from="13471953#7" to="13345308#17"/>
    <trip id="truck135" type="truck_truck" depart="383.15" departLane="best" from="1063161984" to="-1051736211#16"/>
    <trip id="truck136" type="truck_truck" depart="385.99" departLane="best" from="-13293747#2" to="406259063#2"/>
    <trip id="truck137" type="truck_truck" depart="388.82" departLane="best" from="406264568" to="13332367#0"/>
    <trip id="truck138" type="truck_truck" depart="391.66" departLane="best" from="406216724#0" to="-13367374#0"/>
    <trip id="truck139" type="truck_truck" depart="394.50" departLane="best" departSpeed="max" from="-13360156" to="-13345308#4"/>
    <trip id="truck140" type="truck_truck" depart="397.34" departLane="best" departSpeed="max" from="-156466455" to="414764043"/>
    <trip id="truck141" type="truck_truck" depart="400.18" departLane="best" from="405546349" to="406241587#6"/>
    <trip id="truck142" type="truck_truck" depart="403.02" departLane="best" from="-406259067" to="-13404285"/>
    <trip id="truck143" type="truck_truck" depart="405.85" departLane="best" from="-13426333#4" to="-13317660#1"/>
    <trip id="truck144" type="truck_truck" depart="408.69" departLane="best" from="405544793#1" to="406259064#3"/>
    <trip id="truck145" type="truck_truck" depart="411.53" departLane="best" from="-929022781#0" to="13387358#14"/>
    <trip id="truck146" type="truck_truck" depart="414.37" departLane="best" from="-13360316#17" to="59712276#3"/>
    <trip id="truck147" type="truck_truck" depart="417.21" departLane="best" from="406241587#4" to="755844257#1"/>
    <trip id="truck148" type="truck_truck" depart="420.04" departLane="best" from="-406210052#5" to="406259062#0"/>
    <trip id="truck149" type="truck_truck" depart="422.88" departLane="best" from="-1166308294#13" to="192503244#2"/>
    <trip id="truck150" type="truck_truck" depart="425.72" departLane="best" from="406210056#0" to="59712281#0"/>
    <trip id="truck151" type="truck_truck" depart="428.56" departLane="best" from="405546357#0" to="406242637#1"/>
    <trip id="truck152" type="truck_truck" depart="431.40" departLane="best" from="-406210052#5" to="13460918#9"/>
    <trip id="truck153" type="truck_truck" depart="434.24" departLane="best" from="405545577#0" to="-13323113#5"/>
    <trip id="truck154" type="truck_truck" depart="437.07" departLane="best" departSpeed="max" from="-13399210#10" to="406215666#7"/>
    <trip id="truck155" type="truck_truck" depart="439.91" departLane="best" from="1166308294#19" to="-405276988#6"/>
    <trip id="truck156" type="truck_truck" depart="442.75" departLane="best" from="405546347#0" to="13417734#3"/>
    <trip id="truck157" type="truck_truck" depart="445.59" departLane="best" from="1166308294#11" to="-13387358#8"/>
    <trip id="truck158" type="truck_truck" depart="448.43" departLane="best" from="-406210052#0" to="406242917#0"/>
    <trip id="truck159" type="truck_truck" depart="451.26" departLane="best" from="72011935#2" to="-13463892#6"/>
    <trip id="truck160" type="truck_truck" depart="454.10" departLane="best" from="13387358#7" to="105057024#8"/>
    <trip id="truck161" type="truck_truck" depart="456.94" departLane="best" from="755844259" to="13323113#2"/>
    <trip id="truck162" type="truck_truck" depart="459.78" departLane="best" from="-59712281#3" to="-13335414#0"/>
    <trip id="truck163" type="truck_truck" depart="462.62" departLane="best" from="72011935#9" to="-13383857#3"/>
    <trip id="truck164" type="truck_truck" depart="465.45" departLane="best" from="690987758" to="13460918#6"/>
    <trip id="truck165" type="truck_truck" depart="468.29" departLane="best" from="-13315528#9" to="-1166308294#10"/>
    <trip id="truck166" type="truck_truck" depart="471.13" departLane="best" from="-13463862" to="406210056#0"/>
    <trip id="truck167" type="truck_truck" depart="473.97" departLane="best" from="-13372985#14" to="13307004#16"/>
    <trip id="truck168" type="truck_truck" depart="476.81" departLane="best" from="-649530284#2" to="13360316#18"/>
    <trip id="truck169" type="truck_truck" depart="479.65" departLane="best" from="13433283#0" to="13461229"/>
    <trip id="truck170" type="truck_truck" depart="482.48" departLane="best" from="-1008405678#3" to="59712271#3"/>
    <trip id="truck171" type="truck_truck" depart="485.32" departLane="best" from="13310793#3" to="13463892#8"/>
    <trip id="truck172" type="truck_truck" depart="488.16" departLane="best" departSpeed="max" from="13404578#0" to="406259067"/>
    <trip id="truck173" type="truck_truck" depart="491.00" departLane="best" departSpeed="max" from="13463892#0" to="-340769362#2"/>
    <trip id="truck174" type="truck_truck" depart="493.84" departLane="best" departSpeed="max" from="-156466455" to="105057057#4"/>
    <trip id="truck175" type="truck_truck" depart="496.67" departLane="best" from="-762263570" to="-243612604#3"/>
    <trip id="truck176" type="truck_truck" depart="499.51" departLane="best" from="-13345308#10" to="1051736211#13"/>
    <trip id="truck177" type="truck_truck" depart="502.35" departLane="best" from="-59712281#5" to="-13432980#3"/>
    <trip id="truck178" type="truck_truck" depart="505.19" departLane="best" from="-13471148#0" to="13345308#1"/>
    <trip id="truck179" type="truck_truck" depart="508.03" departLane="best" from="-1008405678#0" to="-13471148#3"/>
    <trip id="truck180" type="truck_truck" depart="510.86" departLane="best" from="105057043#0" to="13360316#5"/>
    <trip id="truck181" type="truck_truck" depart="513.70" departLane="best" departSpeed="max" from="13399406" to="13254895#2"/>
    <trip id="truck182" type="truck_truck" depart="516.54" departLane="best" from="1051736211#14" to="-13404578#0"/>
    <trip id="truck183" type="truck_truck" depart="519.38" departLane="best" from="1194285984#4" to="43080181#0"/>
    <trip id="truck184" type="truck_truck" depart="522.22" departLane="best" from="405546349" to="-13373063#14"/>
    <trip id="truck185" type="truck_truck" depart="525.06" departLane="best" from="-13304517#1" to="-13307004#5"/>
    <trip id="truck186" type="truck_truck" depart="527.89" departLane="best" from="13387358#17" to="406259812"/>
    <trip id="truck187" type="truck_truck" depart="530.73" departLane="best" from="13411641#1" to="13412607#0"/>
    <trip id="truck188" type="truck_truck" depart="533.57" departLane="best" departSpeed="max" from="-13421073" to="13287422#18"/>
    <trip id="truck189" type="truck_truck" depart="536.41" departLane="best" from="406232647#2" to="13293747#2"/>
    <trip id="truck190" type="truck_truck" depart="539.25" departLane="best" departSpeed="max" from="-13384124" to="13448799#2"/>
    <trip id="truck191" type="truck_truck" depart="542.08" departLane="best" from="24672357#0" to="405544795#0"/>
    <trip id="truck192" type="truck_truck" depart="544.92" departLane="best" from="-13372985#21" to="-690987761"/>
    <trip id="truck193" type="truck_truck" depart="547.76" departLane="best" from="13299288#1" to="-13281272"/>
    <trip id="truck194" type="truck_truck" depart="550.60" departLane="best" from="-13426333#4" to="406233346#1"/>
    <trip id="truck195" type="truck_truck" depart="553.44" departLane="best" from="1166308294#12" to="406210052#7"/>
    <trip id="truck196" type="truck_truck" depart="556.28" departLane="best" from="13404578#4" to="4619023#1"/>
    <trip id="truck197" type="truck_truck" depart="559.11" departLane="best" from="13360316#5" to="604060296#9"/>
    <trip id="truck198" type="truck_truck" depart="561.95" departLane="best" from="406259061#6" to="13382631#3"/>
    <trip id="truck199" type="truck_truck" depart="564.79" departLane="best" from="-13463856#5" to="13304517#7"/>
    <trip id="truck200" type="truck_truck" depart="567.63" departLane="best" from="406215685#1" to="13345308#1"/>
    <trip id="truck201" type="truck_truck" depart="570.47" departLane="best" from="406259064#9" to="24672357#1"/>
    <trip id="truck202" type="truck_truck" depart="573.30" departLane="best" from="1194285986" to="-13448910#0"/>
    <trip id="truck203" type="truck_truck" depart="576.14" departLane="best" from="-13426333#0" to="13389561#1"/>
    <trip id="truck204" type="truck_truck" depart="578.98" departLane="best" departSpeed="max" from="38855363" to="13310793#5"/>
    <trip id="truck205" type="truck_truck" depart="581.82" departLane="best" from="-13383857#1" to="-13463892#12"/>
    <trip id="truck206" type="truck_truck" depart="584.66" departLane="best" from="-13293747#6" to="-13471148#1"/>
    <trip id="truck207" type="truck_truck" depart="587.49" departLane="best" departSpeed="max" from="-13447863" to="-406259059#1"/>
    <trip id="truck208" type="truck_truck" depart="590.33" departLane="best" from="13310793#7" to="-13354938#3"/>
    <trip id="truck209" type="truck_truck" depart="593.17" departLane="best" from="13404578#6" to="13447863"/>
    <trip id="truck210" type="truck_truck" depart="596.01" departLane="best" from="13448799#1" to="-13287422#3"/>
    <trip id="truck211" type="truck_truck" depart="598.85" departLane="best" from="-946809756" to="13329510#2"/>
    <trip id="truck212" type="truck_truck" depart="601.69" departLane="best" from="1036761436" to="-13399406"/>
    <trip id="truck213" type="truck_truck" depart="604.52" departLane="best" from="105057043#0" to="43542243#2"/>
    <trip id="truck214" type="truck_truck" depart="607.36" departLane="best" from="13354140#6" to="13448799#1"/>
    <trip id="truck216" type="truck_truck" depart="613.04" departLane="best" from="59712284" to="-1051736211#1"/>
    <trip id="truck217" type="truck_truck" depart="615.88" departLane="best" from="-406259069" to="334631554#0"/>
    <trip id="truck218" type="truck_truck" depart="618.71" departLane="best" from="406232656" to="604060314#5"/>
    <trip id="truck219" type="truck_truck" depart="621.55" departLane="best" from="105057024#4" to="334267468#10"/>
    <trip id="truck220" type="truck_truck" depart="624.39" departLane="best" from="-13315528#5" to="-13373063#12"/>
    <trip id="truck221" type="truck_truck" depart="627.23" departLane="best" from="13399210#1" to="-13404578#8"/>
    <trip id="truck222" type="truck_truck" depart="630.07" departLane="best" from="105057079#7" to="-1166308294#26"/>
    <trip id="truck223" type="truck_truck" depart="632.90" departLane="best" from="406219019" to="-13434105#0"/>
    <trip id="truck224" type="truck_truck" depart="635.74" departLane="best" from="-770571740" to="-13372985#8"/>
    <trip id="truck225" type="truck_truck" depart="638.58" departLane="best" from="1166308294#7" to="-13345308#5"/>
    <trip id="truck226" type="truck_truck" depart="641.42" departLane="best" from="72011935#6" to="13354938#2"/>
    <trip id="truck227" type="truck_truck" depart="644.26" departLane="best" from="-1166308294#18" to="13398520#2"/>
    <trip id="truck228" type="truck_truck" depart="647.10" departLane="best" departSpeed="max" from="1300185996" to="-762263571"/>
    <trip id="truck229" type="truck_truck" depart="649.93" departLane="best" departSpeed="max" from="-13387500" to="-406259064#6"/>
    <trip id="truck230" type="truck_truck" depart="652.77" departLane="best" from="334631554#0" to="-762263571"/>
    <trip id="truck231" type="truck_truck" depart="655.61" departLane="best" from="406233349#0" to="406231973#1"/>
    <trip id="truck232" type="truck_truck" depart="658.45" departLane="best" from="13432980#1" to="-13304517#5"/>
    <trip id="truck233" type="truck_truck" depart="661.29" departLane="best" from="-1151395802#0" to="-13323117#2"/>
    <trip id="truck234" type="truck_truck" depart="664.12" departLane="best" from="982784187#1" to="586356925#1"/>
    <trip id="truck235" type="truck_truck" depart="666.96" departLane="best" departSpeed="max" from="13399210#0" to="405545581#1"/>
    <trip id="truck236" type="truck_truck" depart="669.80" departLane="best" from="13399210#2" to="-340769362#0"/>
    <trip id="truck237" type="truck_truck" depart="672.64" departLane="best" from="604060294#0" to="-13398520#1"/>
    <trip id="truck238" type="truck_truck" depart="675.48" departLane="best" from="-1151395802#2" to="13372140#0"/>
    <trip id="truck239" type="truck_truck" depart="678.31" departLane="best" from="13335414#1" to="13421073"/>
    <trip id="truck240" type="truck_truck" depart="681.15" departLane="best" departSpeed="max" from="13335414#0" to="-13404578#6"/>