<additional>
    <inductionLoop id="det_-1073800127#7_0" lane="-1073800127#7_0" pos="181.91" freq="60" file="detector_output.xml"/>
    <inductionLoop id="det_-1148152670#0_0" lane="-1148152670#0_0" pos="76.77" freq="60" file="detector_output.xml"/>
    <inductionLoop id="det_-1257699425#1_0" lane="-1257699425#1_0" pos="28.96" freq="60" file="detector_output.xml"/>
    <inductionLoop id="det_-1257699425#1_1" lane="-1257699425#1_1" pos="28.96" freq="60" file="detector_output.xml"/>
    <inductionLoop id="det_-13254895#1_0" lane="-13254895#1_0" pos="372.33" freq="60" file="detector_output.xml"/>
    <inductionLoop id="det_-13303177#0_0" lane="-13303177#0_0" pos="86.83" freq="60" file="detector_output.xml"/>
    <inductionLoop id="det_-13309030#0_0" lane="-13309030#0_0" pos="149.04" freq="60" file="detector_output.xml"/>
    <inductionLoop id="det_-13313720#1_0" lane="-13313720#1_0" pos="36.17" freq="60" file="detector_output.xml"/>
    <inductionLoop id="det_-13315124#1_0" lane="-13315124#1_0" pos="151.9" freq="60" file="detector_output.xml"/>
    <inductionLoop id="det_-13325513#4_0" lane="-13325513#4_0" pos="182.45" freq="60" file="detector_output.xml"/>
    <inductionLoop id="det_-13344848#0_0" lane="-13344848#0_0" pos="109.7" freq="60" file="detector_output.xml"/>
    <inductionLoop id="det_-13345308#2_0" lane="-13345308#2_0" pos="128.9" freq="60" file="detector_output.xml"/>
    <inductionLoop id="det_-13361148#4_0" lane="-13361148#4_0" pos="117.73" freq="60" file="detector_output.xml"/>
    <inductionLoop id="det_-13363718#0_0" lane="-13363718#0_0" pos="39.79" freq="60" file="detector_output.xml"/>
    <inductionLoop id="det_-13374305_0" lane="-13374305_0" pos="155.67" freq="60" file="detector_output.xml"/>
    <inductionLoop id="det_-13380841#0_0" lane="-13380841#0_0" pos="342.56" freq="60" file="detector_output.xml"/>
    <inductionLoop id="det_-13381701#6_0" lane="-13381701#6_0" pos="17.69" freq="60" file="detector_output.xml"/>
    <inductionLoop id="det_-13389503#5_0" lane="-13389503#5_0" pos="183.52" freq="60" file="detector_output.xml"/>
    <inductionLoop id="det_-13394199_0" lane="-13394199_0" pos="340.59" freq="60" file="detector_output.xml"/>
    <inductionLoop id="det_-13418178#4_0" lane="-13418178#4_0" pos="44.47" freq="60" file="detector_output.xml"/>
    <inductionLoop id="det_-13422482#0_0" lane="-13422482#0_0" pos="356.22" freq="60" file="detector_output.xml"/>
    <inductionLoop id="det_-13435460#5_0" lane="-13435460#5_0" pos="551.55" freq="60" file="detector_output.xml"/>
    <inductionLoop id="det_-13446450#8_0" lane="-13446450#8_0" pos="270.36" freq="60" file="detector_output.xml"/>
    <inductionLoop id="det_-13448795_0" lane="-13448795_0" pos="35.91" freq="60" file="detector_output.xml"/>
    <inductionLoop id="det_-13452420#2_0" lane="-13452420#2_0" pos="10.62" freq="60" file="detector_output.xml"/>
    <inductionLoop id="det_-1364985590_0" lane="-1364985590_0" pos="15.559999999999999" freq="60" file="detector_output.xml"/>
    <inductionLoop id="det_-1364985590_1" lane="-1364985590_1" pos="15.559999999999999" freq="60" file="detector_output.xml"/>
    <inductionLoop id="det_-1364985590_2" lane="-1364985590_2" pos="15.559999999999999" freq="60" file="detector_output.xml"/>
    <inductionLoop id="det_-1364985592_0" lane="-1364985592_0" pos="30.22" freq="60" file="detector_output.xml"/>
    <inductionLoop id="det_-1369727837#3_0" lane="-1369727837#3_0" pos="181.56" freq="60" file="detector_output.xml"/>
    <inductionLoop id="det_-156416005#1_0" lane="-156416005#1_0" pos="35.54" freq="60" file="detector_output.xml"/>
    <inductionLoop id="det_-156416005#1_1" lane="-156416005#1_1" pos="35.54" freq="60" file="detector_output.xml"/>
    <inductionLoop id="det_-233048825#1_0" lane="-233048825#1_0" pos="278.1" freq="60" file="detector_output.xml"/>
    <inductionLoop id="det_-241130831#0_0" lane="-241130831#0_0" pos="137.98" freq="60" file="detector_output.xml"/>
    <inductionLoop id="det_-24719237#3_0" lane="-24719237#3_0" pos="354.57" freq="60" file="detector_output.xml"/>
    <inductionLoop id="det_-25079860#1_0" lane="-25079860#1_0" pos="84.92" freq="60" file="detector_output.xml"/>
    <inductionLoop id="det_-25079865#1_0" lane="-25079865#1_0" pos="198.75" freq="60" file="detector_output.xml"/>
    <inductionLoop id="det_-25729131#0_0" lane="-25729131#0_0" pos="117.76" freq="60" file="detector_output.xml"/>
    <inductionLoop id="det_-29276019_0" lane="-29276019_0" pos="113.45" freq="60" file="detector_output.xml"/>
    <inductionLoop id="det_-30140038#2_0" lane="-30140038#2_0" pos="157.82" freq="60" file="detector_output.xml"/>
    <inductionLoop id="det_-30859496#1_0" lane="-30859496#1_0" pos="31.939999999999998" freq="60" file="detector_output.xml"/>
    <inductionLoop id="det_-30859496#1_1" lane="-30859496#1_1" pos="31.939999999999998" freq="60" file="detector_output.xml"/>
    <inductionLoop id="det_-340769392_0" lane="-340769392_0" pos="438.46" freq="60" file="detector_output.xml"/>
    <inductionLoop id="det_-340769392_1" lane="-340769392_1" pos="438.46" freq="60" file="detector_output.xml"/>
    <inductionLoop id="det_-340769392_2" lane="-340769392_2" pos="438.46" freq="60" file="detector_output.xml"/>
    <inductionLoop id="det_-391849090_0" lane="-391849090_0" pos="102.45" freq="60" file="detector_output.xml"/>
    <inductionLoop id="det_-391849090_1" lane="-391849090_1" pos="102.45" freq="60" file="detector_output.xml"/>
    <inductionLoop id="det_-391849090_2" lane="-391849090_2" pos="102.45" freq="60" file="detector_output.xml"/>
    <inductionLoop id="det_-405274909#1_0" lane="-405274909#1_0" pos="11.21" freq="60" file="detector_output.xml"/>
    <inductionLoop id="det_-405274909#1_1" lane="-405274909#1_1" pos="11.21" freq="60" file="detector_output.xml"/>
    <inductionLoop id="det_-405274909#1_2" lane="-405274909#1_2" pos="11.21" freq="60" file="detector_output.xml"/>
    <inductionLoop id="det_-405276416_0" lane="-405276416_0" pos="27.49" freq="60" file="detector_output.xml"/>
    <inductionLoop id="det_-405323149#1_0" lane="-405323149#1_0" pos="252.49" freq="60" file="detector_output.xml"/>
    <inductionLoop id="det_-405323149#1_1" lane="-405323149#1_1" pos="252.49" freq="60" file="detector_output.xml"/>
    <inductionLoop id="det_-405323150#1_0" lane="-405323150#1_0" pos="116.36" freq="60" file="detector_output.xml"/>
    <inductionLoop id="det_-405323150#1_1" lane="-405323150#1_1" pos="116.36" freq="60" file="detector_output.xml"/>
    <inductionLoop id="det_-405323153_0" lane="-405323153_0" pos="92.92" freq="60" file="detector_output.xml"/>
    <inductionLoop id="det_-405323153_1" lane="-405323153_1" pos="92.92" freq="60" file="detector_output.xml"/>
    <inductionLoop id="det_-405323155#1_0" lane="-405323155#1_0" pos="115.64" freq="60" file="detector_output.xml"/>
    <inductionLoop id="det_-405323155#1_1" lane="-405323155#1_1" pos="115.64" freq="60" file="detector_output.xml"/>
    <inductionLoop id="det_-405323157#1_0" lane="-405323157#1_0" pos="15.899999999999999" freq="60" file="detector_output.xml"/>
    <inductionLoop id="det_-405323157#1_1" lane="-405323157#1_1" pos="15.899999999999999" freq="60" file="detector_output.xml"/>
    <inductionLoop id="det_-405323157#1_2" lane="-405323157#1_2" pos="15.899999999999999" freq="60" file="detector_output.xml"/>
    <inductionLoop id="det_-405323158#1_0" lane="-405323158#1_0" pos="109.51" freq="60" file="detector_output.xml"/>
    <inductionLoop id="det_-405323158#1_1" lane="-405323158#1_1" pos="109.51" freq="60" file="detector_output.xml"/>
    <inductionLoop id="det_-405324315_0" lane="-405324315_0" pos="220.99" freq="60" file="detector_output.xml"/>
    <inductionLoop id="det_-405324315_1" lane="-405324315_1" pos="220.99" freq="60" file="detector_output.xml"/>
    <inductionLoop id="det_-405324335#1_0" lane="-405324335#1_0" pos="116.42" freq="60" file="detector_output.xml"/>
    <inductionLoop id="det_-405324335#1_1" lane="-405324335#1_1" pos="116.42" freq="60" file="detector_output.xml"/>
    <inductionLoop id="det_-405324348#2_0" lane="-405324348#2_0" pos="20.12" freq="60" file="detector_output.xml"/>
    <inductionLoop id="det_-405324348#2_1" lane="-405324348#2_1" pos="20.12" freq="60" file="detector_output.xml"/>
    <inductionLoop id="det_-405324348#2_2" lane="-405324348#2_2" pos="20.12" freq="60" file="detector_output.xml"/>
    <inductionLoop id="det_-405324348#2_3" lane="-405324348#2_3" pos="20.12" freq="60" file="detector_output.xml"/>
    <inductionLoop id="det_-405325394_0" lane="-405325394_0" pos="26.65" freq="60" file="detector_output.xml"/>
    <inductionLoop id="det_-405326239_0" lane="-405326239_0" pos="228.15" freq="60" file="detector_output.xml"/>
    <inductionLoop id="det_-405326254_0" lane="-405326254_0" pos="23.45" freq="60" file="detector_output.xml"/>
    <inductionLoop id="det_-405326254_1" lane="-405326254_1" pos="23.45" freq="60" file="detector_output.xml"/>
    <inductionLoop id="det_-405326254_2" lane="-405326254_2" pos="23.45" freq="60" file="detector_output.xml"/>
    <inductionLoop id="det_-405326260_0" lane="-405326260_0" pos="43.56" freq="60" file="detector_output.xml"/>
    <inductionLoop id="det_-405328860#0_0" lane="-405328860#0_0" pos="26.0" freq="60" file="detector_output.xml"/>
    <inductionLoop id="det_-405328870#1_0" lane="-405328870#1_0" pos="21.67" freq="60" file="detector_output.xml"/>
    <inductionLoop id="det_-405330544_0" lane="-405330544_0" pos="72.69" freq="60" file="detector_output.xml"/>
    <inductionLoop id="det_-405330544_1" lane="-405330544_1" pos="72.69" freq="60" file="detector_output.xml"/>
    <inductionLoop id="det_-405330544_2" lane="-405330544_2" pos="72.69" freq="60" file="detector_output.xml"/>
    <inductionLoop id="det_-405330550_0" lane="-405330550_0" pos="19.62" freq="60" file="detector_output.xml"/>
    <inductionLoop id="det_-405330550_1" lane="-405330550_1" pos="19.62" freq="60" file="detector_output.xml"/>
    <inductionLoop id="det_-405330550_2" lane="-405330550_2" pos="19.62" freq="60" file="detector_output.xml"/>
    <inductionLoop id="det_-405330557#2_0" lane="-405330557#2_0" pos="26.39" freq="60" file="detector_output.xml"/>
    <inductionLoop id="det_-405330557#2_1" lane="-405330557#2_1" pos="26.39" freq="60" file="detector_output.xml"/>
    <inductionLoop id="det_-405330557#2_2" lane="-405330557#2_2" pos="26.39" freq="60" file="detector_output.xml"/>
    <inductionLoop id="det_-405330558_0" lane="-405330558_0" pos="55.6" freq="60" file="detector_output.xml"/>
    <inductionLoop id="det_-405330561_0" lane="-405330561_0" pos="109.64" freq="60" file="detector_output.xml"/>
    <inductionLoop id="det_-405330561_1" lane="-405330561_1" pos="109.64" freq="60" file="detector_output.xml"/>
    <inductionLoop id="det_-405330566#1_0" lane="-405330566#1_0" pos="34.58" freq="60" file="detector_output.xml"/>
    <inductionLoop id="det_-405337844_0" lane="-405337844_0" pos="88.94" freq="60" file="detector_output.xml"/>
    <inductionLoop id="det_-405337844_1" lane="-405337844_1" pos="88.94" freq="60" file="detector_output.xml"/>
    <inductionLoop id="det_-405373571_0" lane="-405373571_0" pos="34.49" freq="60" file="detector_output.xml"/>
    <inductionLoop id="det_-405549341#0_0" lane="-405549341#0_0" pos="76.66" freq="60" file="detector_output.xml"/>
    <inductionLoop id="det_-405549341#0_1" lane="-405549341#0_1" pos="76.66" freq="60" file="detector_output.xml"/>
    <inductionLoop id="det_-405549341#0_2" lane="-405549341#0_2" pos="76.66" freq="60" file="detector_output.xml"/>
    <inductionLoop id="det_-406209733#1_0" lane="-406209733#1_0" pos="32.74" freq="60" file="detector_output.xml"/>
    <inductionLoop id="det_-406209733#1_1" lane="-406209733#1_1" pos="32.74" freq="60" file="detector_output.xml"/>
    <inductionLoop id="det_-406209733#1_2" lane="-406209733#1_2" pos="32.74" freq="60" file="detector_output.xml"/>
    <inductionLoop id="det_-406215681#1_0" lane="-406215681#1_0" pos="7.24" freq="60" file="detector_output.xml"/>
    <inductionLoop id="det_-406215681#1_1" lane="-406215681#1_1" pos="7.24" freq="60" file="detector_output.xml"/>
    <inductionLoop id="det_-406215681#1_2" lane="-406215681#1_2" pos="7.24" freq="60" file="detector_output.xml"/>
    <inductionLoop id="det_-406215681#1_3" lane="-406215681#1_3" pos="7.24" freq="60" file="detector_output.xml"/>
    <inductionLoop id="det_-406219018_0" lane="-406219018_0" pos="19.32" freq="60" file="detector_output.xml"/>
    <inductionLoop id="det_-406236655_0" lane="-406236655_0" pos="19.97" freq="60" file="detector_output.xml"/>
    <inductionLoop id="det_-406236655_1" lane="-406236655_1" pos="19.97" freq="60" file="detector_output.xml"/>
    <inductionLoop id="det_-406236655_2" lane="-406236655_2" pos="19.97" freq="60" file="detector_output.xml"/>
    <inductionLoop id="det_-406258115#1_0" lane="-406258115#1_0" pos="33.71" freq="60" file="detector_output.xml"/>
    <inductionLoop id="det_-406258115#1_1" lane="-406258115#1_1" pos="33.71" freq="60" file="detector_output.xml"/>
    <inductionLoop id="det_-406258115#1_2" lane="-406258115#1_2" pos="33.71" freq="60" file="detector_output.xml"/>
    <inductionLoop id="det_-406259058#2_0" lane="-406259058#2_0" pos="24.87" freq="60" file="detector_output.xml"/>
    <inductionLoop id="det_-406259058#2_1" lane="-406259058#2_1" pos="24.87" freq="60" file="detector_output.xml"/>
    <inductionLoop id="det_-406259058#2_2" lane="-406259058#2_2" pos="24.87" freq="60" file="detector_output.xml"/>
    <inductionLoop id="det_-406259058#2_3" lane="-406259058#2_3" pos="24.87" freq="60" file="detector_output.xml"/>
    <inductionLoop id="det_-406259064_0" lane="-406259064_0" pos="245.79" freq="60" file="detector_output.xml"/>
    <inductionLoop id="det_-406259064_1" lane="-406259064_1" pos="245.79" freq="60" file="detector_output.xml"/>
    <inductionLoop id="det_-406259064_2" lane="-406259064_2" pos="245.79" freq="60" file="detector_output.xml"/>
    <inductionLoop id="det_-406259065#2_0" lane="-406259065#2_0" pos="24.16" freq="60" file="detector_output.xml"/>
    <inductionLoop id="det_-406259065#2_1" lane="-406259065#2_1" pos="24.16" freq="60" file="detector_output.xml"/>
    <inductionLoop id="det_-406259065#2_2" lane="-406259065#2_2" pos="24.16" freq="60" file="detector_output.xml"/>
    <inductionLoop id="det_-406259065#2_3" lane="-406259065#2_3" pos="24.16" freq="60" file="detector_output.xml"/>
    <inductionLoop id="det_-406264567#2_0" lane="-406264567#2_0" pos="30.97" freq="60" file="detector_output.xml"/>
    <inductionLoop id="det_-406264567#2_1" lane="-406264567#2_1" pos="30.97" freq="60" file="detector_output.xml"/>
    <inductionLoop id="det_-415808573#0_0" lane="-415808573#0_0" pos="19.33" freq="60" file="detector_output.xml"/>
    <inductionLoop id="det_-4480316#1_0" lane="-4480316#1_0" pos="44.03" freq="60" file="detector_output.xml"/>
    <inductionLoop id="det_-4480316#1_1" lane="-4480316#1_1" pos="44.03" freq="60" file="detector_output.xml"/>
    <inductionLoop id="det_-4581190_0" lane="-4581190_0" pos="53.61" freq="60" file="detector_output.xml"/>
    <inductionLoop id="det_-569214584#5_0" lane="-569214584#5_0" pos="140.82" freq="60" file="detector_output.xml"/>
    <inductionLoop id="det_-59034260_0" lane="-59034260_0" pos="428.61" freq="60" file="detector_output.xml"/>
    <inductionLoop id="det_-59034260_1" lane="-59034260_1" pos="428.61" freq="60" file="detector_output.xml"/>
    <inductionLoop id="det_-599510795#2_0" lane="-599510795#2_0" pos="101.28" freq="60" file="detector_output.xml"/>
    <inductionLoop id="det_-604060313_0" lane="-604060313_0" pos="108.09" freq="60" file="detector_output.xml"/>
    <inductionLoop id="det_-761868618_0" lane="-761868618_0" pos="181.6" freq="60" file="detector_output.xml"/>
    <inductionLoop id="det_-762263573#1_0" lane="-762263573#1_0" pos="17.81" freq="60" file="detector_output.xml"/>
    <inductionLoop id="det_-762263573#1_1" lane="-762263573#1_1" pos="17.81" freq="60" file="detector_output.xml"/>
    <inductionLoop id="det_-762841983_0" lane="-762841983_0" pos="26.94" freq="60" file="detector_output.xml"/>
    <inductionLoop id="det_-762841983_1" lane="-762841983_1" pos="26.94" freq="60" file="detector_output.xml"/>
    <inductionLoop id="det_-962361356#2_0" lane="-962361356#2_0" pos="13.52" freq="60" file="detector_output.xml"/>
    <inductionLoop id="det_-975556227#0_0" lane="-975556227#0_0" pos="159.47" freq="60" file="detector_output.xml"/>
    <inductionLoop id="det_-988289826_0" lane="-988289826_0" pos="79.56" freq="60" file="detector_output.xml"/>
    <inductionLoop id="det_-988289826_1" lane="-988289826_1" pos="79.56" freq="60" file="detector_output.xml"/>
    <inductionLoop id="det_-988289826_2" lane="-988289826_2" pos="79.56" freq="60" file="detector_output.xml"/>
    <inductionLoop id="det_1007348894_0" lane="1007348894_0" pos="40.68" freq="60" file="detector_output.xml"/>
    <inductionLoop id="det_1007348894_1" lane="1007348894_1" pos="40.68" freq="60" file="detector_output.xml"/>
    <inductionLoop id="det_1007348894_2" lane="1007348894_2" pos="40.68" freq="60" file="detector_output.xml"/>
    <inductionLoop id="det_101001204_0" lane="101001204_0" pos="137.69" freq="60" file="detector_output.xml"/>
    <inductionLoop id="det_101001204_1" lane="101001204_1" pos="137.69" freq="60" file="detector_output.xml"/>
    <inductionLoop id="det_1014534743_0" lane="1014534743_0" pos="4.65" freq="60" file="detector_output.xml"/>
    <inductionLoop id="det_1014534743_1" lane="1014534743_1" pos="4.65" freq="60" file="detector_output.xml"/>
    <inductionLoop id="det_1014534743_2" lane="1014534743_2" pos="4.65" freq="60" file="detector_output.xml"/>
    <inductionLoop id="det_1014534743_3" lane="1014534743_3" pos="4.65" freq="60" file="detector_output.xml"/>
    <inductionLoop id="det_1020225870#0_0" lane="1020225870#0_0" pos="16.47" freq="60" file="detector_output.xml"/>
    <inductionLoop id="det_1020225870#0_1" lane="1020225870#0_1" pos="16.47" freq="60" file="detector_output.xml"/>
    <inductionLoop id="det_1020225870#0_2" lane="1020225870#0_2" pos="16.47" freq="60" file="detector_output.xml"/>
    <inductionLoop id="det_1036478535_0" lane="1036478535_0" pos="29.59" freq="60" file="detector_output.xml"/>
    <inductionLoop id="det_1036478535_1" lane="1036478535_1" pos="29.59" freq="60" file="detector_output.xml"/>
    <inductionLoop id="det_1036556855_0" lane="1036556855_0" pos="34.31" freq="60" file="detector_output.xml"/>
    <inductionLoop id="det_1036556855_1" lane="1036556855_1" pos="34.31" freq="60" file="detector_output.xml"/>
    <inductionLoop id="det_1036556855_2" lane="1036556855_2" pos="34.31" freq="60" file="detector_output.xml"/>
    <inductionLoop id="det_104358605_0" lane="104358605_0" pos="44.97" freq="60" file="detector_output.xml"/>
    <inductionLoop id="det_104358605_1" lane="104358605_1" pos="44.97" freq="60" file="detector_output.xml"/>
    <inductionLoop id="det_104358605_2" lane="104358605_2" pos="44.97" freq="60" file="detector_output.xml"/>
    <inductionLoop id="det_1051037174#0_0" lane="1051037174#0_0" pos="35.56" freq="60" file="detector_output.xml"/>
    <inductionLoop id="det_1051037174#0_1" lane="1051037174#0_1" pos="35.56" freq="60" file="detector_output.xml"/>
    <inductionLoop id="det_1063161984_0" lane="1063161984_0" pos="45.58" freq="60" file="detector_output.xml"/>
    <inductionLoop id="det_1063161984_1" lane="1063161984_1" pos="45.58" freq="60" file="detector_output.xml"/>
    <inductionLoop id="det_1065518636#0_0" lane="1065518636#0_0" pos="30.12" freq="60" file="detector_output.xml"/>
    <inductionLoop id="det_1065518636#0_1" lane="1065518636#0_1" pos="30.12" freq="60" file="detector_output.xml"/>
    <inductionLoop id="det_1065518636#0_2" lane="1065518636#0_2" pos="30.12" freq="60" file="detector_output.xml"/>
    <inductionLoop id="det_1071904583_0" lane="1071904583_0" pos="49.4" freq="60" file="detector_output.xml"/>
    <inductionLoop id="det_1071904583_1" lane="1071904583_1" pos="49.4" freq="60" file="detector_output.xml"/>
    <inductionLoop id="det_1071904583_2" lane="1071904583_2" pos="49.4" freq="60" file="detector_output.xml"/>
    <inductionLoop id="det_1071904583_3" lane="1071904583_3" pos="49.4" freq="60" file="detector_output.xml"/>
    <inductionLoop id="det_1073800127#4_0" lane="1073800127#4_0" pos="46.18" freq="60" file="detector_output.xml"/>
    <inductionLoop id="det_1151394343#0_0" lane="1151394343#0_0" pos="35.21" freq="60" file="detector_output.xml"/>
    <inductionLoop id="det_1151394343#0_1" lane="1151394343#0_1" pos="35.21" freq="60" file="detector_output.xml"/>
    <inductionLoop id="det_1151394343#0_2" lane="1151394343#0_2" pos="35.21" freq="60" file="detector_output.xml"/>
    <inductionLoop id="det_1227767789#0_0" lane="1227767789#0_0" pos="11.42" freq="60" file="detector_output.xml"/>
    <inductionLoop id="det_1227767789#0_1" lane="1227767789#0_1" pos="11.42" freq="60" file="detector_output.xml"/>
    <inductionLoop id="det_1227767789#0_2" lane="1227767789#0_2" pos="11.42" freq="60" file="detector_output.xml"/>
    <inductionLoop id="det_1229631320#0_0" lane="1229631320#0_0" pos="6.88" freq="60" file="detector_output.xml"/>
    <inductionLoop id="det_1229631320#0_1" lane="1229631320#0_1" pos="6.88" freq="60" file="detector_output.xml"/>
    <inductionLoop id="det_1229631320#0_2" lane="1229631320#0_2" pos="6.88" freq="60" file="detector_output.xml"/>
    <inductionLoop id="det_1250921620_0" lane="1250921620_0" pos="32.58" freq="60" file="detector_output.xml"/>
    <inductionLoop id="det_1250921620_1" lane="1250921620_1" pos="32.58" freq="60" file="detector_output.xml"/>
    <inductionLoop id="det_1250921620_2" lane="1250921620_2" pos="32.58" freq="60" file="detector_output.xml"/>
    <inductionLoop id="det_13264983_0" lane="13264983_0" pos="133.85" freq="60" file="detector_output.xml"/>
    <inductionLoop id="det_13264983_1" lane="13264983_1" pos="133.85" freq="60" file="detector_output.xml"/>
    <inductionLoop id="det_13278771_0" lane="13278771_0" pos="45.77" freq="60" file="detector_output.xml"/>
    <inductionLoop id="det_13296328#1_0" lane="13296328#1_0" pos="165.76" freq="60" file="detector_output.xml"/>
    <inductionLoop id="det_13299221#0_0" lane="13299221#0_0" pos="577.63" freq="60" file="detector_output.xml"/>
    <inductionLoop id="det_13302468_0" lane="13302468_0" pos="117.78" freq="60" file="detector_output.xml"/>
    <inductionLoop id="det_13303177#3_0" lane="13303177#3_0" pos="99.6" freq="60" file="detector_output.xml"/>
    <inductionLoop id="det_13309030#3_0" lane="13309030#3_0" pos="139.4" freq="60" file="detector_output.xml"/>
    <inductionLoop id="det_13325513#1_0" lane="13325513#1_0" pos="182.55" freq="60" file="detector_output.xml"/>
    <inductionLoop id="det_13345308#1_0" lane="13345308#1_0" pos="259.94" freq="60" file="detector_output.xml"/>
    <inductionLoop id="det_13361148#3_0" lane="13361148#3_0" pos="118.93" freq="60" file="detector_output.xml"/>
    <inductionLoop id="det_13363719#0_0" lane="13363719#0_0" pos="101.65" freq="60" file="detector_output.xml"/>
    <inductionLoop id="det_13367860#1_0" lane="13367860#1_0" pos="687.59" freq="60" file="detector_output.xml"/>
    <inductionLoop id="det_13381701#2_0" lane="13381701#2_0" pos="141.43" freq="60" file="detector_output.xml"/>
    <inductionLoop id="det_13389503#2_0" lane="13389503#2_0" pos="180.28" freq="60" file="detector_output.xml"/>
    <inductionLoop id="det_13407257#2_0" lane="13407257#2_0" pos="87.15" freq="60" file="detector_output.xml"/>
    <inductionLoop id="det_13415178_0" lane="13415178_0" pos="119.94" freq="60" file="detector_output.xml"/>
    <inductionLoop id="det_13418178#1_0" lane="13418178#1_0" pos="183.21" freq="60" file="detector_output.xml"/>
    <inductionLoop id="det_13435460#0_0" lane="13435460#0_0" pos="354.52" freq="60" file="detector_output.xml"/>
    <inductionLoop id="det_13446450#6_0" lane="13446450#6_0" pos="218.19" freq="60" file="detector_output.xml"/>
    <inductionLoop id="det_13448799#3_0" lane="13448799#3_0" pos="220.74" freq="60" file="detector_output.xml"/>
    <inductionLoop id="det_13468636#2_0" lane="13468636#2_0" pos="21.68" freq="60" file="detector_output.xml"/>
    <inductionLoop id="det_1351507116#0_0" lane="1351507116#0_0" pos="22.83" freq="60" file="detector_output.xml"/>
    <inductionLoop id="det_1351507116#0_1" lane="1351507116#0_1" pos="22.83" freq="60" file="detector_output.xml"/>
    <inductionLoop id="det_1351507116#0_2" lane="1351507116#0_2" pos="22.83" freq="60" file="detector_output.xml"/>
    <inductionLoop id="det_1352713233#0_0" lane="1352713233#0_0" pos="208.43" freq="60" file="detector_output.xml"/>
    <inductionLoop id="det_1355191059#0_0" lane="1355191059#0_0" pos="8.34" freq="60" file="detector_output.xml"/>
    <inductionLoop id="det_1355191059#0_1" lane="1355191059#0_1" pos="8.34" freq="60" file="detector_output.xml"/>
    <inductionLoop id="det_1369727837#0_0" lane="1369727837#0_0" pos="45.77" freq="60" file="detector_output.xml"/>
    <inductionLoop id="det_156416005#0_0" lane="156416005#0_0" pos="34.91" freq="60" file="detector_output.xml"/>
    <inductionLoop id="det_156416005#0_1" lane="156416005#0_1" pos="34.91" freq="60" file="detector_output.xml"/>
    <inductionLoop id="det_156466483#5_0" lane="156466483#5_0" pos="78.27" freq="60" file="detector_output.xml"/>
    <inductionLoop id="det_165325742_0" lane="165325742_0" pos="134.24" freq="60" file="detector_output.xml"/>
    <inductionLoop id="det_165325742_1" lane="165325742_1" pos="134.24" freq="60" file="detector_output.xml"/>
    <inductionLoop id="det_182043865#1_0" lane="182043865#1_0" pos="32.07" freq="60" file="detector_output.xml"/>
    <inductionLoop id="det_182043865#1_1" lane="182043865#1_1" pos="32.07" freq="60" file="detector_output.xml"/>
    <inductionLoop id="det_187986225#1_0" lane="187986225#1_0" pos="75.71" freq="60" file="detector_output.xml"/>
    <inductionLoop id="det_192503236#0_0" lane="192503236#0_0" pos="32.06" freq="60" file="detector_output.xml"/>
    <inductionLoop id="det_192503236#0_1" lane="192503236#0_1" pos="32.06" freq="60" file="detector_output.xml"/>
    <inductionLoop id="det_192503236#0_2" lane="192503236#0_2" pos="32.06" freq="60" file="detector_output.xml"/>
    <inductionLoop id="det_29111476#0_0" lane="29111476#0_0" pos="119.09" freq="60" file="detector_output.xml"/>
    <inductionLoop id="det_29275934_0" lane="29275934_0" pos="148.85" freq="60" file="detector_output.xml"/>
    <inductionLoop id="det_29611246#6_0" lane="29611246#6_0" pos="99.16" freq="60" file="detector_output.xml"/>
    <inductionLoop id="det_30516085#1_0" lane="30516085#1_0" pos="44.37" freq="60" file="detector_output.xml"/>
    <inductionLoop id="det_311011453#0_0" lane="311011453#0_0" pos="84.41" freq="60" file="detector_output.xml"/>
    <inductionLoop id="det_311011453#0_1" lane="311011453#0_1" pos="84.41" freq="60" file="detector_output.xml"/>
    <inductionLoop id="det_311011453#0_2" lane="311011453#0_2" pos="84.41" freq="60" file="detector_output.xml"/>
    <inductionLoop id="det_3129403_0" lane="3129403_0" pos="89.04" freq="60" file="detector_output.xml"/>
    <inductionLoop id="det_3129403_1" lane="3129403_1" pos="89.04" freq="60" file="detector_output.xml"/>
    <inductionLoop id="det_3129403_2" lane="3129403_2" pos="89.04" freq="60" file="detector_output.xml"/>
    <inductionLoop id="det_3129403_3" lane="3129403_3" pos="89.04" freq="60" file="detector_output.xml"/>
    <inductionLoop id="det_334631554#0_0" lane="334631554#0_0" pos="282.73" freq="60" file="detector_output.xml"/>
    <inductionLoop id="det_334631554#0_1" lane="334631554#0_1" pos="282.73" freq="60" file="detector_output.xml"/>
    <inductionLoop id="det_334631554#0_2" lane="334631554#0_2" pos="282.73" freq="60" file="detector_output.xml"/>
    <inductionLoop id="det_334631554#0_3" lane="334631554#0_3" pos="282.73" freq="60" file="detector_output.xml"/>
    <inductionLoop id="det_340722865_0" lane="340722865_0" pos="43.39" freq="60" file="detector_output.xml"/>
    <inductionLoop id="det_340722865_1" lane="340722865_1" pos="43.39" freq="60" file="detector_output.xml"/>
    <inductionLoop id="det_340722865_2" lane="340722865_2" pos="43.39" freq="60" file="detector_output.xml"/>
    <inductionLoop id="det_340722865_3" lane="340722865_3" pos="43.39" freq="60" file="detector_output.xml"/>
    <inductionLoop id="det_390810266#0_0" lane="390810266#0_0" pos="10.14" freq="60" file="detector_output.xml"/>
    <inductionLoop id="det_390810266#0_1" lane="390810266#0_1" pos="10.14" freq="60" file="detector_output.xml"/>
    <inductionLoop id="det_390810266#0_2" lane="390810266#0_2" pos="10.14" freq="60" file="detector_output.xml"/>
    <inductionLoop id="det_390810266#0_3" lane="390810266#0_3" pos="10.14" freq="60" file="detector_output.xml"/>
    <inductionLoop id="det_402521441#0_0" lane="402521441#0_0" pos="36.03" freq="60" file="detector_output.xml"/>
    <inductionLoop id="det_402521441#0_1" lane="402521441#0_1" pos="36.03" freq="60" file="detector_output.xml"/>
    <inductionLoop id="det_402521441#0_2" lane="402521441#0_2" pos="36.03" freq="60" file="detector_output.xml"/>
    <inductionLoop id="det_402521441#0_3" lane="402521441#0_3" pos="36.03" freq="60" file="detector_output.xml"/>
    <inductionLoop id="det_402521457#0_0" lane="402521457#0_0" pos="33.39" freq="60" file="detector_output.xml"/>
    <inductionLoop id="det_402521457#0_1" lane="402521457#0_1" pos="33.39" freq="60" file="detector_output.xml"/>
    <inductionLoop id="det_402521457#0_2" lane="402521457#0_2" pos="33.39" freq="60" file="detector_output.xml"/>
    <inductionLoop id="det_402521457#0_3" lane="402521457#0_3" pos="33.39" freq="60" file="detector_output.xml"/>
    <inductionLoop id="det_405277520#1_0" lane="405277520#1_0" pos="349.19" freq="60" file="detector_output.xml"/>