<?xml version="1.0" encoding="UTF-8"?>

<!-- generated on 2025-05-26 22:20:45.012218 by osmWebWizard.py UNKNOWN
<configuration>
    <net-file value="/Users/nedasarbalavandeymir/Sumo/2025-05-26-22-19-37/osm.net.xml.gz"/>
    <output-trip-file value="/Users/nedasarbalavandeymir/Sumo/2025-05-26-22-19-37/osm.passenger.trips.xml"/>
    <route-file value="/Users/nedasarbalavandeymir/Sumo/2025-05-26-22-19-37/osm.passenger.rou.xml"/>
    <prefix value="veh"/>
    <trip-attributes value="departLane=&quot;best&quot;"/>
    <fringe-start-attributes value="departSpeed=&quot;max&quot;"/>
    <vehicle-class value="passenger"/>
    <lanes value="True"/>
    <fringe-factor value="5"/>
    <allow-fringe.min-length value="1000.0"/>
    <via-edge-types value="highway.motorway,highway.motorway_link,highway.trunk_link,highway.primary_link,highway.secondary_link,highway.tertiary_link"/>
    <min-distance value="300.0"/>
    <min-distance.fringe value="10.0"/>
    <remove-loops value="True"/>
    <validate value="True"/>
    <insertion-density value="12.0"/>
</configuration>
-->

<!-- generated on 2025-05-26 22:20:42 by Eclipse SUMO duarouter Version 1.22.0
<duarouterConfiguration xmlns:xsi="http://www.w3.org/2001/XMLSchema-instance" xsi:noNamespaceSchemaLocation="http://sumo.dlr.de/xsd/duarouterConfiguration.xsd">

    <input>
        <net-file value="/Users/nedasarbalavandeymir/Sumo/2025-05-26-22-19-37/osm.net.xml.gz"/>
        <route-files value="/Users/nedasarbalavandeymir/Sumo/2025-05-26-22-19-37/osm.passenger.trips.xml"/>
    </input>

    <output>
        <output-file value="/Users/nedasarbalavandeymir/Sumo/2025-05-26-22-19-37/osm.passenger.trips.xml.tmp"/>
        <alternatives-output value="NUL"/>
        <write-trips value="true"/>
    </output>

    <processing>
        <remove-loops value="true"/>
    </processing>

    <time>
        <begin value="0.0"/>
        <end value="3600.0"/>
    </time>

    <report>
        <no-warnings value="true"/>
        <ignore-errors value="true"/>
        <no-step-log value="true"/>
    </report>

</duarouterConfiguration>
-->

<routes xmlns:xsi="http://www.w3.org/2001/XMLSchema-instance" xsi:noNamespaceSchemaLocation="http://sumo.dlr.de/xsd/routes_file.xsd">
    <vType id="veh_passenger" vClass="passenger"/>
    <trip id="veh0" type="veh_passenger" depart="0.00" departLane="best" from="13471953#4" to="-13288763#1"/>
    <trip id="veh2" type="veh_passenger" depart="0.69" departLane="best" from="405324327#0" to="340698990#1"/>
    <trip id="veh3" type="veh_passenger" depart="1.03" departLane="best" from="406231979" to="-13351561"/>
    <trip id="veh5" type="veh_passenger" depart="1.72" departLane="best" departSpeed="max" from="-13444141" to="13387037#1"/>
    <trip id="veh7" type="veh_passenger" depart="2.41" departLane="best" from="406207381#0" to="406217834"/>
    <trip id="veh8" type="veh_passenger" depart="2.75" departLane="best" departSpeed="max" from="-13446450#10" to="13445654#0"/>
    <trip id="veh9" type="veh_passenger" depart="3.10" departLane="best" from="405543903" to="1151395798#2"/>
    <trip id="veh10" type="veh_passenger" depart="3.44" departLane="best" from="405373663#0" to="405323183#0"/>
    <trip id="veh11" type="veh_passenger" depart="3.79" departLane="best" departSpeed="max" from="-406264567#2" to="-13404578#1"/>
    <trip id="veh12" type="veh_passenger" depart="4.13" departLane="best" from="59712267#1" to="-72016664"/>
    <trip id="veh13" type="veh_passenger" depart="4.47" departLane="best" from="13352824#0" to="-13360321#0"/>
    <trip id="veh14" type="veh_passenger" depart="4.82" departLane="best" from="405552405#1" to="13457688"/>
    <trip id="veh15" type="veh_passenger" depart="5.16" departLane="best" from="405375389" to="405325429"/>
    <trip id="veh16" type="veh_passenger" depart="5.51" departLane="best" departSpeed="max" from="13392368" to="742789904#3"/>
    <trip id="veh17" type="veh_passenger" depart="5.85" departLane="best" from="405327134" to="13418653"/>
    <trip id="veh18" type="veh_passenger" depart="6.20" departLane="best" from="405548657" to="-13469262#1"/>
    <trip id="veh19" type="veh_passenger" depart="6.54" departLane="best" from="406207382#0" to="13435433"/>
    <trip id="veh20" type="veh_passenger" depart="6.88" departLane="best" departSpeed="max" from="38922180" to="13303177#3"/>
    <trip id="veh21" type="veh_passenger" depart="7.23" departLane="best" departSpeed="max" from="-13450514" to="-405326284#0"/>
    <trip id="veh22" type="veh_passenger" depart="7.57" departLane="best" departSpeed="max" from="-13344405" to="-13468636#3"/>
    <trip id="veh23" type="veh_passenger" depart="7.92" departLane="best" departSpeed="max" from="-13360156" to="-405324315"/>
    <trip id="veh24" type="veh_passenger" depart="8.26" departLane="best" departSpeed="max" from="13469408#0" to="52121595#0"/>
    <trip id="veh25" type="veh_passenger" depart="8.60" departLane="best" departSpeed="max" from="-798107303" to="-13446450#5"/>
    <trip id="veh26" type="veh_passenger" depart="8.95" departLane="best" departSpeed="max" from="-227069271" to="5214237#0"/>
    <trip id="veh27" type="veh_passenger" depart="9.29" departLane="best" from="156416005#3" to="13461229"/>
    <trip id="veh28" type="veh_passenger" depart="9.64" departLane="best" departSpeed="max" from="-13407896#2" to="405325409"/>
    <trip id="veh29" type="veh_passenger" depart="9.98" departLane="best" departSpeed="max" from="-13403448" to="13278961#1"/>
    <trip id="veh30" type="veh_passenger" depart="10.33" departLane="best" from="762263572#0" to="-182050924#1"/>
    <trip id="veh31" type="veh_passenger" depart="10.67" departLane="best" from="13406206#2" to="38922187"/>
    <trip id="veh32" type="veh_passenger" depart="11.01" departLane="best" from="405550771#0" to="405336654#0"/>
    <trip id="veh33" type="veh_passenger" depart="11.36" departLane="best" departSpeed="max" from="-13451297" to="-13295391#0"/>
    <trip id="veh34" type="veh_passenger" depart="11.70" departLane="best" from="-405330532#1" to="-30906133"/>
    <trip id="veh35" type="veh_passenger" depart="12.05" departLane="best" departSpeed="max" from="-13438641" to="578427349"/>
    <trip id="veh36" type="veh_passenger" depart="12.39" departLane="best" from="406215639#0" to="-406235355"/>
    <trip id="veh37" type="veh_passenger" depart="12.73" departLane="best" from="182050924#10" to="13294824#1"/>
    <trip id="veh38" type="veh_passenger" depart="13.08" departLane="best" from="406241603#0" to="13352798"/>
    <trip id="veh39" type="veh_passenger" depart="13.42" departLane="best" from="-182050924#5" to="-156466483#5"/>
    <trip id="veh40" type="veh_passenger" depart="13.77" departLane="best" departSpeed="max" from="-13407681#1" to="-29611246#5"/>
    <trip id="veh41" type="veh_passenger" depart="14.11" departLane="best" departSpeed="max" from="13428024#0" to="406241592#0"/>
    <trip id="veh42" type="veh_passenger" depart="14.46" departLane="best" from="-1148152670#1" to="13456964#1"/>
    <trip id="veh43" type="veh_passenger" depart="14.80" departLane="best" from="962378663#0" to="13389503#4"/>
    <trip id="veh44" type="veh_passenger" depart="15.14" departLane="best" departSpeed="max" from="-13352439" to="-13303647#0"/>
    <trip id="veh45" type="veh_passenger" depart="15.49" departLane="best" from="-13363718#3" to="1366118193"/>
    <trip id="veh46" type="veh_passenger" depart="15.83" departLane="best" from="405336658#1" to="13315635#1"/>
    <trip id="veh47" type="veh_passenger" depart="16.18" departLane="best" departSpeed="max" from="-13326393#1" to="13279415#1"/>
    <trip id="veh48" type="veh_passenger" depart="16.52" departLane="best" from="864098676" to="13401621"/>
    <trip id="veh49" type="veh_passenger" depart="16.87" departLane="best" from="645260839" to="406215604"/>
    <trip id="veh50" type="veh_passenger" depart="17.21" departLane="best" from="-1257699425#1" to="405324334"/>
    <trip id="veh52" type="veh_passenger" depart="17.90" departLane="best" departSpeed="max" from="-206911853#1" to="-182050924#2"/>
    <trip id="veh54" type="veh_passenger" depart="18.59" departLane="best" departSpeed="max" from="13311712" to="604060296#3-AddedOffRampEdge"/>
    <trip id="veh55" type="veh_passenger" depart="18.93" departLane="best" from="406215636" to="-30140038#3"/>
    <trip id="veh56" type="veh_passenger" depart="19.27" departLane="best" from="13363718#12" to="-13424702#0"/>
    <trip id="veh57" type="veh_passenger" depart="19.62" departLane="best" from="406241592#7" to="406216733"/>
    <trip id="veh58" type="veh_passenger" depart="19.96" departLane="best" from="405324348#0" to="182043873"/>
    <trip id="veh59" type="veh_passenger" depart="20.31" departLane="best" departSpeed="max" from="13446450#0" to="-13401619"/>
    <trip id="veh60" type="veh_passenger" depart="20.65" departLane="best" from="405327125" to="13407893#1"/>
    <trip id="veh61" type="veh_passenger" depart="21.00" departLane="best" from="405328867#3" to="13402087#1"/>
    <trip id="veh62" type="veh_passenger" depart="21.34" departLane="best" from="1020207054#0" to="-467523299"/>
    <trip id="veh63" type="veh_passenger" depart="21.68" departLane="best" from="-13281833#1" to="4480318#3"/>
    <trip id="veh64" type="veh_passenger" depart="22.03" departLane="best" from="406215675" to="405552393"/>
    <trip id="veh66" type="veh_passenger" depart="22.72" departLane="best" from="406215663" to="59712274"/>
    <trip id="veh67" type="veh_passenger" depart="23.06" departLane="best" departSpeed="max" from="-13347542#1" to="13372140"/>
    <trip id="veh68" type="veh_passenger" depart="23.40" departLane="best" departSpeed="max" from="-13331403#3" to="405327167#0"/>
    <trip id="veh69" type="veh_passenger" depart="23.75" departLane="best" from="405327136" to="-13388208#0"/>
    <trip id="veh70" type="veh_passenger" depart="24.09" departLane="best" departSpeed="max" from="13337552" to="13417973"/>
    <trip id="veh71" type="veh_passenger" depart="24.44" departLane="best" from="-182050924#7" to="406216738"/>
    <trip id="veh73" type="veh_passenger" depart="25.13" departLane="best" departSpeed="max" from="13393699" to="405325429"/>
    <trip id="veh75" type="veh_passenger" depart="25.81" departLane="best" from="85057874#5" to="25003109#5"/>
    <trip id="veh77" type="veh_passenger" depart="26.50" departLane="best" departSpeed="max" from="-13373627" to="-13461994#0"/>
    <trip id="veh78" type="veh_passenger" depart="26.85" departLane="best" from="-406259058#2" to="13442722#1"/>
    <trip id="veh79" type="veh_passenger" depart="27.19" departLane="best" from="-13452420#2" to="-13458557#0"/>
    <trip id="veh80" type="veh_passenger" depart="27.53" departLane="best" departSpeed="max" from="-13332525" to="-156416005#1"/>
    <trip id="veh81" type="veh_passenger" depart="27.88" departLane="best" departSpeed="max" from="-13451297" to="406241587#3"/>
    <trip id="veh82" type="veh_passenger" depart="28.22" departLane="best" from="406207374#0" to="-13328418"/>
    <trip id="veh83" type="veh_passenger" depart="28.57" departLane="best" departSpeed="max" from="-13461229" to="30140042#3"/>
    <trip id="veh85" type="veh_passenger" depart="29.26" departLane="best" from="-412227861" to="-13431194#3"/>
    <trip id="veh86" type="veh_passenger" depart="29.60" departLane="best" from="-13332163#1" to="405337852"/>
    <trip id="veh87" type="veh_passenger" depart="29.94" departLane="best" from="405378436" to="-13432980"/>
    <trip id="veh88" type="veh_passenger" depart="30.29" departLane="best" from="13355868#2" to="13326393#1"/>
    <trip id="veh89" type="veh_passenger" depart="30.63" departLane="best" from="-13289438#2" to="13358851#1"/>
    <trip id="veh90" type="veh_passenger" depart="30.98" departLane="best" from="405323244#0" to="3129403"/>
    <trip id="veh91" type="veh_passenger" depart="31.32" departLane="best" from="755844267" to="-13360602#0"/>
    <trip id="veh92" type="veh_passenger" depart="31.67" departLane="best" from="1166308294#5" to="762841983"/>
    <trip id="veh93" type="veh_passenger" depart="32.01" departLane="best" from="406207382#0" to="-182050924#12"/>
    <trip id="veh94" type="veh_passenger" depart="32.35" departLane="best" departSpeed="max" from="-13422472" to="13345105#2"/>
    <trip id="veh96" type="veh_passenger" depart="33.04" departLane="best" departSpeed="max" from="-13470324" to="414623192"/>
    <trip id="veh97" type="veh_passenger" depart="33.39" departLane="best" from="13303177#2" to="406215613#0"/>
    <trip id="veh98" type="veh_passenger" depart="33.73" departLane="best" from="13399211" to="-13306995#0"/>
    <trip id="veh99" type="veh_passenger" depart="34.07" departLane="best" from="982784187#1" to="406207321#9"/>
    <trip id="veh100" type="veh_passenger" depart="34.42" departLane="best" from="630485946" to="43150538"/>
    <trip id="veh101" type="veh_passenger" depart="34.76" departLane="best" from="405553383" to="-13412090"/>
    <trip id="veh102" type="veh_passenger" depart="35.11" departLane="best" from="13352824#1" to="-13448913#0"/>
    <trip id="veh103" type="veh_passenger" depart="35.45" departLane="best" from="1151394343#0" to="-13315403#0"/>
    <trip id="veh104" type="veh_passenger" depart="35.80" departLane="best" from="1021052818" to="-762787882"/>
    <trip id="veh105" type="veh_passenger" depart="36.14" departLane="best" from="-182050924#8" to="405337847"/>
    <trip id="veh106" type="veh_passenger" depart="36.48" departLane="best" departSpeed="max" from="13313820" to="-13317514"/>
    <trip id="veh107" type="veh_passenger" depart="36.83" departLane="best" departSpeed="max" from="13405748#0" to="405324323"/>
    <trip id="veh108" type="veh_passenger" depart="37.17" departLane="best" from="-13396799" to="1352713235#0"/>
    <trip id="veh109" type="veh_passenger" depart="37.52" departLane="best" from="630143605" to="-13437778#1"/>
    <trip id="veh113" type="veh_passenger" depart="38.89" departLane="best" departSpeed="max" from="-13398492" to="654235845#0"/>
    <trip id="veh114" type="veh_passenger" depart="39.24" departLane="best" departSpeed="max" from="-13344405" to="13428028#7"/>
    <trip id="veh115" type="veh_passenger" depart="39.58" departLane="best" departSpeed="max" from="13435429" to="334267468#3"/>
    <trip id="veh116" type="veh_passenger" depart="39.93" departLane="best" departSpeed="max" from="-13458557#1" to="-13379985#1"/>
    <trip id="veh117" type="veh_passenger" depart="40.27" departLane="best" departSpeed="max" from="406219585" to="-156466483#2"/>
    <trip id="veh118" type="veh_passenger" depart="40.61" departLane="best" from="13435428#0" to="13469774#0"/>
    <trip id="veh119" type="veh_passenger" depart="40.96" departLane="best" departSpeed="max" from="13285369#0" to="-13439888#2"/>
    <trip id="veh120" type="veh_passenger" depart="41.30" departLane="best" departSpeed="max" from="13384949" to="405324328"/>
    <trip id="veh122" type="veh_passenger" depart="41.99" departLane="best" departSpeed="max" from="-13461550" to="-13295391#1"/>
    <trip id="veh123" type="veh_passenger" depart="42.33" departLane="best" from="25079865#2" to="-405378475"/>
    <trip id="veh124" type="veh_passenger" depart="42.68" departLane="best" from="405330550" to="405327142"/>
    <trip id="veh125" type="veh_passenger" depart="43.02" departLane="best" departSpeed="max" from="-13334435" to="13352439"/>
    <trip id="veh126" type="veh_passenger" depart="43.37" departLane="best" from="-13337602" to="-13448910#0"/>
    <trip id="veh127" type="veh_passenger" depart="43.71" departLane="best" from="-182050924#8" to="-46994950#3"/>
    <trip id="veh128" type="veh_passenger" depart="44.06" departLane="best" from="406215698#0" to="406231983"/>
    <trip id="veh129" type="veh_passenger" depart="44.40" departLane="best" from="-762888319" to="13406206#0"/>
    <trip id="veh130" type="veh_passenger" depart="44.74" departLane="best" from="-405549340" to="405323196"/>
    <trip id="veh131" type="veh_passenger" depart="45.09" departLane="best" from="-13412607#1" to="770571741"/>
    <trip id="veh132" type="veh_passenger" depart="45.43" departLane="best" from="405337818#0" to="1171926058"/>
    <trip id="veh133" type="veh_passenger" depart="45.78" departLane="best" from="405545580" to="-405378475"/>
    <trip id="veh134" type="veh_passenger" depart="46.12" departLane="best" departSpeed="max" from="24719732" to="524847623"/>
    <trip id="veh135" type="veh_passenger" depart="46.46" departLane="best" departSpeed="max" from="-13384124" to="-13377421#0"/>
    <trip id="veh136" type="veh_passenger" depart="46.81" departLane="best" from="13360602#0" to="13418657"/>
    <trip id="veh137" type="veh_passenger" depart="47.15" departLane="best" from="-25079865#1" to="13457796#1"/>
    <trip id="veh138" type="veh_passenger" depart="47.50" departLane="best" from="405323184" to="-13440741#0"/>
    <trip id="veh140" type="veh_passenger" depart="48.19" departLane="best" from="13354140#4" to="406241587#4"/>
    <trip id="veh141" type="veh_passenger" depart="48.53" departLane="best" from="405552402#0" to="-13358246#1"/>
    <trip id="veh142" type="veh_passenger" depart="48.87" departLane="best" from="-13289438#2" to="-405323157#1"/>
    <trip id="veh143" type="veh_passenger" depart="49.22" departLane="best" departSpeed="max" from="-105057012" to="405336639#0"/>
    <trip id="veh144" type="veh_passenger" depart="49.56" departLane="best" from="13471148#3" to="-29611246#0"/>
    <trip id="veh145" type="veh_passenger" depart="49.91" departLane="best" from="405324336" to="13418178#6"/>
    <trip id="veh146" type="veh_passenger" depart="50.25" departLane="best" from="13293773#0" to="-1229631320#2"/>
    <trip id="veh148" type="veh_passenger" depart="50.94" departLane="best" from="406234623#0" to="13415497"/>
    <trip id="veh149" type="veh_passenger" depart="51.28" departLane="best" from="-405549342#1" to="13439449"/>
    <trip id="veh150" type="veh_passenger" depart="51.63" departLane="best" from="-13394378" to="13387358#3"/>
    <trip id="veh151" type="veh_passenger" depart="51.97" departLane="best" from="405326254" to="406241611#2"/>
    <trip id="veh152" type="veh_passenger" depart="52.32" departLane="best" from="405337827" to="406215604"/>
    <trip id="veh153" type="veh_passenger" depart="52.66" departLane="best" from="755844261#0" to="-13446765"/>
    <trip id="veh154" type="veh_passenger" depart="53.00" departLane="best" departSpeed="max" from="-13470324" to="-13363718#4"/>
    <trip id="veh155" type="veh_passenger" depart="53.35" departLane="best" from="-405330528" to="406232000#0"/>
    <trip id="veh156" type="veh_passenger" depart="53.69" departLane="best" from="1250921620" to="-13471050#1"/>
    <trip id="veh158" type="veh_passenger" depart="54.38" departLane="best" from="406208180" to="755844261#0"/>
    <trip id="veh160" type="veh_passenger" depart="55.07" departLane="best" departSpeed="max" from="-13289433#1" to="405326284#1"/>
    <trip id="veh161" type="veh_passenger" depart="55.41" departLane="best" from="-406219014#1" to="4480318#5-AddedOnRampEdge"/>
    <trip id="veh162" type="veh_passenger" depart="55.76" departLane="best" departSpeed="max" from="405337870" to="406215647"/>
    <trip id="veh163" type="veh_passenger" depart="56.10" departLane="best" from="405543905#0" to="-305753779"/>
    <trip id="veh164" type="veh_passenger" depart="56.45" departLane="best" from="405336644" to="-13368109#0"/>
    <trip id="veh165" type="veh_passenger" depart="56.79" departLane="best" from="406209736#0" to="406209731#0"/>
    <trip id="veh166" type="veh_passenger" depart="57.13" departLane="best" from="13447188#0" to="405548658"/>
    <trip id="veh168" type="veh_passenger" depart="57.82" departLane="best" from="405337821" to="-13463794"/>
    <trip id="veh169" type="veh_passenger" depart="58.17" departLane="best" from="13288763#0" to="-13434105#1"/>
    <trip id="veh170" type="veh_passenger" depart="58.51" departLane="best" from="-406209733#1" to="406215650"/>
    <trip id="veh171" type="veh_passenger" depart="58.86" departLane="best" departSpeed="max" from="604060309#0" to="-405324348#2"/>
    <trip id="veh172" type="veh_passenger" depart="59.20" departLane="best" from="-405330544" to="13299220#5"/>
    <trip id="veh173" type="veh_passenger" depart="59.54" departLane="best" from="962378663#0" to="13406211"/>
    <trip id="veh174" type="veh_passenger" depart="59.89" departLane="best" departSpeed="max" from="43076157#0" to="-13377421#0"/>
    <trip id="veh175" type="veh_passenger" depart="60.23" departLane="best" from="642158245" to="-13424702#0"/>
    <trip id="veh176" type="veh_passenger" depart="60.58" departLane="best" from="59712283#4" to="-30140110#2"/>
    <trip id="veh178" type="veh_passenger" depart="61.26" departLane="best" from="405323240" to="-406235336"/>
    <trip id="veh180" type="veh_passenger" depart="61.95" departLane="best" from="1043653329#1" to="13434840#1"/>
    <trip id="veh181" type="veh_passenger" depart="62.30" departLane="best" departSpeed="max" from="-1364985591" to="405323236#0"/>
    <trip id="veh182" type="veh_passenger" depart="62.64" departLane="best" from="-1036761436" to="415808576"/>
    <trip id="veh183" type="veh_passenger" depart="62.99" departLane="best" from="-13393603" to="405324329"/>
    <trip id="veh184" type="veh_passenger" depart="63.33" departLane="best" from="-405324349#1" to="30430898#6"/>
    <trip id="veh185" type="veh_passenger" depart="63.67" departLane="best" from="72016662#2" to="-13327960#0"/>
    <trip id="veh186" type="veh_passenger" depart="64.02" departLane="best" departSpeed="max" from="24719732" to="-642075391"/>
    <trip id="veh187" type="veh_passenger" depart="64.36" departLane="best" departSpeed="max" from="-405328870#1" to="406207378"/>
    <trip id="veh188" type="veh_passenger" depart="64.71" departLane="best" from="405323191" to="-405378475"/>
    <trip id="veh189" type="veh_passenger" depart="65.05" departLane="best" from="405326289#1" to="-13304517#0"/>
    <trip id="veh190" type="veh_passenger" depart="65.40" departLane="best" from="1166308294#3" to="405330524"/>
    <trip id="veh191" type="veh_passenger" depart="65.74" departLane="best" departSpeed="max" from="-13379715" to="13315408"/>
    <trip id="veh192" type="veh_passenger" depart="66.08" departLane="best" from="755844281#0" to="340698990#5"/>
    <trip id="veh193" type="veh_passenger" depart="66.43" departLane="best" from="406233349#0" to="13466542#1"/>
    <trip id="veh195" type="veh_passenger" depart="67.12" departLane="best" from="-1020207054#1" to="-405326239"/>
    <trip id="veh196" type="veh_passenger" depart="67.46" departLane="best" from="-13295613" to="13438629"/>
    <trip id="veh197" type="veh_passenger" depart="67.80" departLane="best" from="182043866#1" to="13357583#3"/>
    <trip id="veh198" type="veh_passenger" depart="68.15" departLane="best" departSpeed="max" from="13302658" to="-13448913#0"/>
    <trip id="veh199" type="veh_passenger" depart="68.49" departLane="best" departSpeed="max" from="13335414" to="406241603#0"/>
    <trip id="veh200" type="veh_passenger" depart="68.84" departLane="best" from="405337826" to="-13418173#0"/>
    <trip id="veh201" type="veh_passenger" depart="69.18" departLane="best" departSpeed="max" from="-13347302" to="-13392839#2"/>
    <trip id="veh202" type="veh_passenger" depart="69.53" departLane="best" from="13468636#1" to="-72016661#0"/>
    <trip id="veh203" type="veh_passenger" depart="69.87" departLane="best" from="405545584#2" to="405327140#0"/>
    <trip id="veh204" type="veh_passenger" depart="70.21" departLane="best" departSpeed="max" from="25206347" to="-13461994#0"/>
    <trip id="veh205" type="veh_passenger" depart="70.56" departLane="best" from="-13428028#7" to="-13287980"/>
    <trip id="veh206" type="veh_passenger" depart="70.90" departLane="best" from="13466542#4" to="13361148#4"/>
    <trip id="veh207" type="veh_passenger" depart="71.25" departLane="best" departSpeed="max" from="13279077" to="146653501"/>
    <trip id="veh208" type="veh_passenger" depart="71.59" departLane="best" departSpeed="max" from="-13425725" to="405323175#0"/>
    <trip id="veh209" type="veh_passenger" depart="71.93" departLane="best" departSpeed="max" from="13360321#0" to="-156416005#0"/>
    <trip id="veh210" type="veh_passenger" depart="72.28" departLane="best" from="-182050924#5" to="1148152671"/>
    <trip id="veh211" type="veh_passenger" depart="72.62" departLane="best" from="-405326254" to="405336634#0"/>
    <trip id="veh213" type="veh_passenger" depart="73.31" departLane="best" departSpeed="max" from="-13415012" to="644263361"/>
    <trip id="veh214" type="veh_passenger" depart="73.66" departLane="best" departSpeed="max" from="13379983" to="-13306995#0"/>
    <trip id="veh215" type="veh_passenger" depart="74.00" departLane="best" departSpeed="max" from="-13469774#1" to="406207380"/>
    <trip id="veh216" type="veh_passenger" depart="74.34" departLane="best" from="-13315124#3" to="405544796#0"/>
    <trip id="veh217" type="veh_passenger" depart="74.69" departLane="best" from="405336638#2" to="798107303"/>
    <trip id="veh218" type="veh_passenger" depart="75.03" departLane="best" departSpeed="max" from="13435444" to="59712283#3"/>
    <trip id="veh219" type="veh_passenger" depart="75.38" departLane="best" from="-406220350" to="13463892#1"/>
    <trip id="veh220" type="veh_passenger" depart="75.72" departLane="best" from="405323189" to="13386558#3"/>
    <trip id="veh222" type="veh_passenger" depart="76.41" departLane="best" from="406232000#0" to="405327112"/>
    <trip id="veh223" type="veh_passenger" depart="76.75" departLane="best" departSpeed="max" from="13335596" to="-292716907"/>
    <trip id="veh225" type="veh_passenger" depart="77.44" departLane="best" from="405327136" to="13395371"/>
    <trip id="veh226" type="veh_passenger" depart="77.79" departLane="best" departSpeed="max" from="13463790" to="405274916"/>
    <trip id="veh227" type="veh_passenger" depart="78.13" departLane="best" departSpeed="max" from="-13342425" to="405325443"/>
    <trip id="veh228" type="veh_passenger" depart="78.47" departLane="best" from="-25079860#1" to="-406504587"/>
    <trip id="veh229" type="veh_passenger" depart="78.82" departLane="best" departSpeed="max" from="13394376#0" to="-13392371"/>
    <trip id="veh230" type="veh_passenger" depart="79.16" departLane="best" from="-13456941#1" to="405323152"/>
    <trip id="veh233" type="veh_passenger" depart="80.20" departLane="best" departSpeed="max" from="13280753" to="-13442722#0"/>
    <trip id="veh234" type="veh_passenger" depart="80.54" departLane="best" from="13286866#1" to="406242635#10"/>
    <trip id="veh235" type="veh_passenger" depart="80.88" departLane="best" departSpeed="max" from="13427130" to="405323167#0"/>
    <trip id="veh236" type="veh_passenger" depart="81.23" departLane="best" from="156416012#5" to="405330555"/>
    <trip id="veh237" type="veh_passenger" depart="81.57" departLane="best" from="1036478535" to="1148152673"/>
    <trip id="veh238" type="veh_passenger" depart="81.92" departLane="best" departSpeed="max" from="-59032930" to="405327159#0"/>
    <trip id="veh239" type="veh_passenger" depart="82.26" departLane="best" from="406207373" to="604060296#3-AddedOffRampEdge"/>
    <trip id="veh240" type="veh_passenger" depart="82.60" departLane="best" departSpeed="max" from="13285369#0" to="405327128#0"/>
    <trip id="veh242" type="veh_passenger" depart="83.29" departLane="best" departSpeed="max" from="-13446450#10" to="-13456977"/>
    <trip id="veh243" type="veh_passenger" depart="83.64" departLane="best" from="-13299220#4" to="-13292118"/>
    <trip id="veh244" type="veh_passenger" depart="83.98" departLane="best" from="406235380" to="-340722866#0"/>
    <trip id="veh245" type="veh_passenger" depart="84.33" departLane="best" from="1227767789#0" to="-13409219#0"/>
    <trip id="veh246" type="veh_passenger" depart="84.67" departLane="best" departSpeed="max" from="13460181#0" to="-13289438#2"/>
    <trip id="veh247" type="veh_passenger" depart="85.01" departLane="best" from="1072582794#1" to="13425766"/>
    <trip id="veh248" type="veh_passenger" depart="85.36" departLane="best" from="-13293376" to="182793364"/>
    <trip id="veh250" type="veh_passenger" depart="86.05" departLane="best" departSpeed="max" from="-13313823" to="13278652#1"/>
    <trip id="veh252" type="veh_passenger" depart="86.73" departLane="best" from="405327144" to="13278652#1"/>
    <trip id="veh253" type="veh_passenger" depart="87.08" departLane="best" from="405326281" to="405552395"/>
    <trip id="veh254" type="veh_passenger" depart="87.42" departLane="best" from="-13471953#4" to="-13345105#0"/>
    <trip id="veh255" type="veh_passenger" depart="87.77" departLane="best" from="13293747#8" to="13407893#1"/>
    <trip id="veh256" type="veh_passenger" depart="88.11" departLane="best" departSpeed="max" from="993181394" to="1036498467#0"/>
    <trip id="veh257" type="veh_passenger" depart="88.46" departLane="best" from="156416012#6" to="405337822"/>
    <trip id="veh258" type="veh_passenger" depart="88.80" departLane="best" from="156466483#0" to="405327148#1"/>
    <trip id="veh260" type="veh_passenger" depart="89.49" departLane="best" departSpeed="max" from="-13282092" to="-13400632#0"/>
    <trip id="veh262" type="veh_passenger" depart="90.18" departLane="best" from="-13408962#2" to="13456941#5"/>
    <trip id="veh263" type="veh_passenger" depart="90.52" departLane="best" from="340769362#3" to="405330557#0"/>
    <trip id="veh265" type="veh_passenger" depart="91.21" departLane="best" from="-405325431" to="-13377192#0"/>
    <trip id="veh266" type="veh_passenger" depart="91.55" departLane="best" from="405546348" to="-690987761"/>
    <trip id="veh268" type="veh_passenger" depart="92.24" departLane="best" from="-405326298" to="340698990#5"/>
    <trip id="veh269" type="veh_passenger" depart="92.59" departLane="best" from="59712270-AddedOffRampEdge" to="13295615#2"/>