<?xml version="1.0" encoding="UTF-8"?>

<!-- generated on 2025-05-26 22:20:37.738531 by osmWebWizard.py UNKNOWN
<configuration>
    <net-file value="/Users/nedasarbalavandeymir/Sumo/2025-05-26-22-19-37/osm.net.xml.gz"/>
    <output-trip-file value="/Users/nedasarbalavandeymir/Sumo/2025-05-26-22-19-37/osm.bus.trips.xml"/>
    <route-file value="/Users/nedasarbalavandeymir/Sumo/2025-05-26-22-19-37/osm.bus.rou.xml"/>
    <prefix value="bus"/>
    <trip-attributes value="departLane=&quot;best&quot;"/>
    <fringe-start-attributes value="departSpeed=&quot;max&quot;"/>
    <vehicle-class value="bus"/>
    <fringe-factor value="5"/>
    <vclass value="bus"/>
    <via-edge-types value="highway.motorway,highway.motorway_link,highway.trunk_link,highway.primary_link,highway.secondary_link,highway.tertiary_link"/>
    <min-distance value="600.0"/>
    <min-distance.fringe value="10.0"/>
    <remove-loops value="True"/>
    <validate value="True"/>
    <insertion-density value="4.0"/>
</configuration>
-->

<!-- generated on 2025-05-26 22:20:36 by Eclipse SUMO duarouter Version 1.22.0
<duarouterConfiguration xmlns:xsi="http://www.w3.org/2001/XMLSchema-instance" xsi:noNamespaceSchemaLocation="http://sumo.dlr.de/xsd/duarouterConfiguration.xsd">

    <input>
        <net-file value="/Users/nedasarbalavandeymir/Sumo/2025-05-26-22-19-37/osm.net.xml.gz"/>
        <route-files value="/Users/nedasarbalavandeymir/Sumo/2025-05-26-22-19-37/osm.bus.trips.xml"/>
    </input>

    <output>
        <output-file value="/Users/nedasarbalavandeymir/Sumo/2025-05-26-22-19-37/osm.bus.trips.xml.tmp"/>
        <alternatives-output value="NUL"/>
        <write-trips value="true"/>
    </output>

    <processing>
        <remove-loops value="true"/>
    </processing>

    <time>
        <begin value="0.0"/>
        <end value="3600.0"/>
    </time>

    <report>
        <no-warnings value="true"/>
        <ignore-errors value="true"/>
        <no-step-log value="true"/>
    </report>

</duarouterConfiguration>
-->

<routes xmlns:xsi="http://www.w3.org/2001/XMLSchema-instance" xsi:noNamespaceSchemaLocation="http://sumo.dlr.de/xsd/routes_file.xsd">
    <vType id="bus_bus" vClass="bus"/>
    <trip id="bus0" type="bus_bus" depart="0.00" departLane="best" departSpeed="max" from="13392227" to="-13285369#0"/>
    <trip id="bus1" type="bus_bus" depart="1.03" departLane="best" departSpeed="max" from="-13438641" to="-13420576#0"/>
    <trip id="bus2" type="bus_bus" depart="2.06" departLane="best" from="13446450#2" to="-13425691#0"/>
    <trip id="bus3" type="bus_bus" depart="3.10" departLane="best" from="405543907#2" to="-13327960#0"/>
    <trip id="bus4" type="bus_bus" depart="4.13" departLane="best" departSpeed="max" from="-578427349" to="-13289433#0"/>
    <trip id="bus5" type="bus_bus" depart="5.16" departLane="best" departSpeed="max" from="-13406211" to="13327960#3"/>
    <trip id="bus6" type="bus_bus" depart="6.19" departLane="best" from="-13285204#0" to="-13404578#0"/>
    <trip id="bus7" type="bus_bus" depart="7.22" departLane="best" departSpeed="max" from="13395348" to="-13353393#5"/>
    <trip id="bus8" type="bus_bus" depart="8.26" departLane="best" departSpeed="max" from="-13407258#1" to="13379724"/>
    <trip id="bus9" type="bus_bus" depart="9.29" departLane="best" from="29271906" to="1148152670#1"/>
    <trip id="bus11" type="bus_bus" depart="11.35" departLane="best" departSpeed="max" from="43076157#0" to="-30140038#3"/>
    <trip id="bus12" type="bus_bus" depart="12.39" departLane="best" departSpeed="max" from="-13334433" to="-13337552"/>
    <trip id="bus13" type="bus_bus" depart="13.42" departLane="best" from="405324321" to="13387500"/>
    <trip id="bus14" type="bus_bus" depart="14.45" departLane="best" from="-271237819#3" to="13457452#0"/>
    <trip id="bus16" type="bus_bus" depart="16.51" departLane="best" departSpeed="max" from="365605144" to="13394972"/>
    <trip id="bus17" type="bus_bus" depart="17.55" departLane="best" from="405327107" to="13372222"/>
    <trip id="bus18" type="bus_bus" depart="18.58" departLane="best" departSpeed="max" from="13428024#0" to="-13299220#0"/>
    <trip id="bus19" type="bus_bus" depart="19.61" departLane="best" from="-13412607#1" to="-13461996"/>
    <trip id="bus20" type="bus_bus" depart="20.64" departLane="best" departSpeed="max" from="-13325513#5" to="-13425728"/>
    <trip id="bus21" type="bus_bus" depart="21.67" departLane="best" departSpeed="max" from="-13344102#1" to="13452420#1"/>
    <trip id="bus23" type="bus_bus" depart="23.74" departLane="best" from="-308459805#0" to="-13407902"/>
    <trip id="bus24" type="bus_bus" depart="24.77" departLane="best" from="-13432980" to="406252560"/>
    <trip id="bus26" type="bus_bus" depart="26.83" departLane="best" departSpeed="max" from="-13381701#9" to="13457289#1"/>
    <trip id="bus28" type="bus_bus" depart="28.90" departLane="best" from="757302576#0" to="13405896#1"/>
    <trip id="bus29" type="bus_bus" depart="29.93" departLane="best" from="-13331053#0" to="13429182"/>
    <trip id="bus30" type="bus_bus" depart="30.96" departLane="best" from="405323232" to="206911853#0"/>
    <trip id="bus32" type="bus_bus" depart="33.03" departLane="best" from="-13463892#2" to="-13446450#0"/>
    <trip id="bus33" type="bus_bus" depart="34.06" departLane="best" departSpeed="max" from="-13402087#1" to="414937296"/>
    <trip id="bus34" type="bus_bus" depart="35.09" departLane="best" from="-405330559" to="-156466483#1"/>
    <trip id="bus35" type="bus_bus" depart="36.12" departLane="best" departSpeed="max" from="13397196#0" to="-72011936"/>
    <trip id="bus36" type="bus_bus" depart="37.16" departLane="best" from="406207376" to="13295615#2"/>
    <trip id="bus37" type="bus_bus" depart="38.19" departLane="best" departSpeed="max" from="-13431378#1" to="-13433857#0"/>
    <trip id="bus38" type="bus_bus" depart="39.22" departLane="best" from="13336109" to="-13442107#0"/>
    <trip id="bus39" type="bus_bus" depart="40.25" departLane="best" from="-13360316#13" to="406207359"/>
    <trip id="bus41" type="bus_bus" depart="42.32" departLane="best" from="900575480" to="13330540"/>
    <trip id="bus42" type="bus_bus" depart="43.35" departLane="best" departSpeed="max" from="-13332525" to="-13299221#0"/>
    <trip id="bus43" type="bus_bus" depart="44.38" departLane="best" departSpeed="max" from="-13347302" to="13398230#1"/>
    <trip id="bus44" type="bus_bus" depart="45.41" departLane="best" from="182793363#0" to="1072677710"/>
    <trip id="bus45" type="bus_bus" depart="46.44" departLane="best" departSpeed="max" from="-13313720#1" to="-43076157#0"/>
    <trip id="bus47" type="bus_bus" depart="48.51" departLane="best" departSpeed="max" from="59685247" to="405330535"/>
    <trip id="bus48" type="bus_bus" depart="49.54" departLane="best" departSpeed="max" from="-1166308294#8" to="13449584"/>
    <trip id="bus50" type="bus_bus" depart="51.61" departLane="best" from="-13432777#1" to="13406204#1"/>
    <trip id="bus51" type="bus_bus" depart="52.64" departLane="best" from="1032935464" to="524206684"/>
    <trip id="bus53" type="bus_bus" depart="54.70" departLane="best" from="13293773#5" to="-13392839#1"/>
    <trip id="bus54" type="bus_bus" depart="55.73" departLane="best" from="406207351" to="405337822"/>
    <trip id="bus55" type="bus_bus" depart="56.77" departLane="best" departSpeed="max" from="-13451297" to="-13405668#2"/>
    <trip id="bus56" type="bus_bus" depart="57.80" departLane="best" departSpeed="max" from="13374953" to="13380823#0"/>
    <trip id="bus57" type="bus_bus" depart="58.83" departLane="best" from="13463892#2" to="13352141"/>
    <trip id="bus59" type="bus_bus" depart="60.89" departLane="best" from="1036498467#0" to="-25003162#3"/>
    <trip id="bus61" type="bus_bus" depart="62.96" departLane="best" from="25003109#3" to="405324317"/>
    <trip id="bus62" type="bus_bus" depart="63.99" departLane="best" departSpeed="max" from="-13458815" to="-13303649#0"/>
    <trip id="bus63" type="bus_bus" depart="65.02" departLane="best" from="405336628" to="4480318#4"/>
    <trip id="bus64" type="bus_bus" depart="66.05" departLane="best" departSpeed="max" from="-13328422" to="13313720#0"/>
    <trip id="bus65" type="bus_bus" depart="67.09" departLane="best" departSpeed="max" from="-13315631#1" to="1369727837#0"/>
    <trip id="bus66" type="bus_bus" depart="68.12" departLane="best" departSpeed="max" from="13468168#0" to="-13363485#0"/>
    <trip id="bus67" type="bus_bus" depart="69.15" departLane="best" from="-761868618" to="13358246#2"/>
    <trip id="bus68" type="bus_bus" depart="70.18" departLane="best" departSpeed="max" from="-13431378#1" to="405337852"/>
    <trip id="bus69" type="bus_bus" depart="71.22" departLane="best" departSpeed="max" from="-59032930" to="-13410975#0"/>
    <trip id="bus70" type="bus_bus" depart="72.25" departLane="best" departSpeed="max" from="13315404" to="13457688"/>
    <trip id="bus72" type="bus_bus" depart="74.31" departLane="best" departSpeed="max" from="80082094#0" to="13408974"/>
    <trip id="bus73" type="bus_bus" depart="75.34" departLane="best" departSpeed="max" from="-723264680" to="13341080#0"/>
    <trip id="bus75" type="bus_bus" depart="77.41" departLane="best" from="-156466483#5" to="13379715"/>
    <trip id="bus78" type="bus_bus" depart="80.50" departLane="best" departSpeed="max" from="-13415012" to="406208187#0"/>
    <trip id="bus80" type="bus_bus" depart="82.57" departLane="best" departSpeed="max" from="-13418178#6" to="13420649"/>
    <trip id="bus81" type="bus_bus" depart="83.60" departLane="best" from="-13471953#0" to="-13366235"/>
    <trip id="bus82" type="bus_bus" depart="84.63" departLane="best" from="406232660" to="-13367857#1"/>
    <trip id="bus83" type="bus_bus" depart="85.66" departLane="best" departSpeed="max" from="1224447124" to="25079860#2"/>
    <trip id="bus84" type="bus_bus" depart="86.70" departLane="best" departSpeed="max" from="29111472#0" to="-13398116"/>
    <trip id="bus86" type="bus_bus" depart="88.76" departLane="best" departSpeed="max" from="-59032930" to="-13300979#1"/>
    <trip id="bus87" type="bus_bus" depart="89.79" departLane="best" from="13440743#0" to="-13422482#1"/>
    <trip id="bus89" type="bus_bus" depart="91.86" departLane="best" from="1090736692" to="-30140110#2"/>
    <trip id="bus91" type="bus_bus" depart="93.92" departLane="best" departSpeed="max" from="-578427349" to="-13452749"/>
    <trip id="bus92" type="bus_bus" depart="94.95" departLane="best" departSpeed="max" from="-13422482#3" to="406233346"/>
    <trip id="bus93" type="bus_bus" depart="95.99" departLane="best" from="-80082094#1" to="405330555"/>
    <trip id="bus94" type="bus_bus" depart="97.02" departLane="best" departSpeed="max" from="13325513#0" to="-13300981#0"/>
    <trip id="bus95" type="bus_bus" depart="98.05" departLane="best" departSpeed="max" from="993181394" to="405324350#2"/>
    <trip id="bus96" type="bus_bus" depart="99.08" departLane="best" from="540167768#1" to="-406236655"/>
    <trip id="bus98" type="bus_bus" depart="101.15" departLane="best" departSpeed="max" from="13282091" to="13412607#1"/>
    <trip id="bus99" type="bus_bus" depart="102.18" departLane="best" from="-405549342#0" to="-13304472"/>
    <trip id="bus100" type="bus_bus" depart="103.21" departLane="best" from="405274916" to="758032497#0"/>
    <trip id="bus101" type="bus_bus" depart="104.24" departLane="best" departSpeed="max" from="-13431378#1" to="25079860#2"/>
    <trip id="bus102" type="bus_bus" depart="105.27" departLane="best" from="1044650272" to="1072677711#1"/>
    <trip id="bus103" type="bus_bus" depart="106.31" departLane="best" departSpeed="max" from="43076157#0" to="899699583#1"/>
    <trip id="bus104" type="bus_bus" depart="107.34" departLane="best" departSpeed="max" from="13330981#0" to="-13448913#1"/>
    <trip id="bus105" type="bus_bus" depart="108.37" departLane="best" departSpeed="max" from="-13372222" to="-13467844#1"/>
    <trip id="bus106" type="bus_bus" depart="109.40" departLane="best" from="539606655#0" to="13372985#5"/>
    <trip id="bus107" type="bus_bus" depart="110.43" departLane="best" from="-13315635#0" to="-13468641#1"/>
    <trip id="bus108" type="bus_bus" depart="111.47" departLane="best" departSpeed="max" from="-13307402#4" to="13378229#1"/>
    <trip id="bus109" type="bus_bus" depart="112.50" departLane="best" departSpeed="max" from="13295618" to="405327159#0"/>
    <trip id="bus110" type="bus_bus" depart="113.53" departLane="best" from="-13373631" to="59712270"/>
    <trip id="bus111" type="bus_bus" depart="114.56" departLane="best" from="-13325540#1" to="-13395373"/>
    <trip id="bus112" type="bus_bus" depart="115.60" departLane="best" from="13363718#11" to="-13423454"/>
    <trip id="bus113" type="bus_bus" depart="116.63" departLane="best" from="-13417734#1" to="13360316#6"/>
    <trip id="bus114" type="bus_bus" depart="117.66" departLane="best" from="405375386" to="-13433737#2"/>
    <trip id="bus115" type="bus_bus" depart="118.69" departLane="best" from="-13363718#0" to="13394975"/>
    <trip id="bus116" type="bus_bus" depart="119.72" departLane="best" departSpeed="max" from="-569214584#5" to="13377914"/>
    <trip id="bus117" type="bus_bus" depart="120.76" departLane="best" departSpeed="max" from="13303649#0" to="182043866#0"/>
    <trip id="bus118" type="bus_bus" depart="121.79" departLane="best" departSpeed="max" from="-13398230#2" to="13448795"/>
    <trip id="bus119" type="bus_bus" depart="122.82" departLane="best" departSpeed="max" from="-13418653" to="-72016661#0"/>
    <trip id="bus122" type="bus_bus" depart="125.92" departLane="best" from="13318269#1" to="13295391#2"/>
    <trip id="bus124" type="bus_bus" depart="127.98" departLane="best" departSpeed="max" from="-13431378#1" to="406242644#0"/>
    <trip id="bus125" type="bus_bus" depart="129.01" departLane="best" from="405336652" to="405543904#0"/>
    <trip id="bus126" type="bus_bus" depart="130.04" departLane="best" departSpeed="max" from="-308459804" to="-13384117#0"/>
    <trip id="bus127" type="bus_bus" depart="131.08" departLane="best" from="406253573#0" to="13439473#1"/>
    <trip id="bus128" type="bus_bus" depart="132.11" departLane="best" from="13377192#2" to="761437440"/>
    <trip id="bus130" type="bus_bus" depart="134.17" departLane="best" from="30140042#2" to="-13468636#3"/>
    <trip id="bus131" type="bus_bus" depart="135.21" departLane="best" from="755844258" to="406259062"/>
    <trip id="bus132" type="bus_bus" depart="136.24" departLane="best" from="-13360316#5" to="-13355868#2"/>
    <trip id="bus133" type="bus_bus" depart="137.27" departLane="best" departSpeed="max" from="-13345599" to="13360156"/>
    <trip id="bus134" type="bus_bus" depart="138.30" departLane="best" from="-13435466#1" to="13388817"/>
    <trip id="bus135" type="bus_bus" depart="139.33" departLane="best" departSpeed="max" from="13435429" to="-13406622"/>
    <trip id="bus137" type="bus_bus" depart="141.40" departLane="best" from="-13285369#1" to="307297794"/>
    <trip id="bus138" type="bus_bus" depart="142.43" departLane="best" from="405323271#1" to="-13331403#2"/>
    <trip id="bus140" type="bus_bus" depart="144.49" departLane="best" departSpeed="max" from="-105048551" to="182050923"/>
    <trip id="bus141" type="bus_bus" depart="145.53" departLane="best" departSpeed="max" from="13390659#0" to="-13440745"/>
    <trip id="bus142" type="bus_bus" depart="146.56" departLane="best" departSpeed="max" from="13448910#0" to="13359857#0"/>
    <trip id="bus143" type="bus_bus" depart="147.59" departLane="best" from="-630485949" to="1171926058"/>
    <trip id="bus144" type="bus_bus" depart="148.62" departLane="best" departSpeed="max" from="-13321129#1" to="405546353"/>
    <trip id="bus145" type="bus_bus" depart="149.65" departLane="best" from="405550761" to="13354140#1"/>
    <trip id="bus146" type="bus_bus" depart="150.69" departLane="best" from="402521441#0" to="13377421#1"/>
    <trip id="bus148" type="bus_bus" depart="152.75" departLane="best" from="-13460107" to="405553383"/>
    <trip id="bus149" type="bus_bus" depart="153.78" departLane="best" from="24719265" to="405330534"/>
    <trip id="bus150" type="bus_bus" depart="154.82" departLane="best" from="405548657" to="-13408962#3"/>
    <trip id="bus151" type="bus_bus" depart="155.85" departLane="best" departSpeed="max" from="-13422482#3" to="-13345105#0"/>
    <trip id="bus152" type="bus_bus" depart="156.88" departLane="best" from="1369727836" to="762888315#1"/>
    <trip id="bus153" type="bus_bus" depart="157.91" departLane="best" from="-406220932" to="13395357"/>
    <trip id="bus154" type="bus_bus" depart="158.94" departLane="best" from="13372147" to="762263572#0"/>
    <trip id="bus155" type="bus_bus" depart="159.98" departLane="best" from="405327128#0" to="72016661#1"/>
    <trip id="bus156" type="bus_bus" depart="161.01" departLane="best" departSpeed="max" from="29610874#0" to="405545580"/>
    <trip id="bus158" type="bus_bus" depart="163.07" departLane="best" departSpeed="max" from="-1364985591" to="406241611#2"/>
    <trip id="bus160" type="bus_bus" depart="165.14" departLane="best" departSpeed="max" from="29610874#0" to="-13444139"/>
    <trip id="bus161" type="bus_bus" depart="166.17" departLane="best" departSpeed="max" from="178428494#0" to="-13349295#0"/>
    <trip id="bus162" type="bus_bus" depart="167.20" departLane="best" departSpeed="max" from="405328859#0" to="-405328867#3"/>
    <trip id="bus163" type="bus_bus" depart="168.23" departLane="best" departSpeed="max" from="-13407893#1" to="38922189#1"/>
    <trip id="bus164" type="bus_bus" depart="169.26" departLane="best" from="105057079#0" to="-13471571#0"/>
    <trip id="bus165" type="bus_bus" depart="170.30" departLane="best" from="-243612604#0" to="-13421583"/>
    <trip id="bus166" type="bus_bus" depart="171.33" departLane="best" from="-13281275#0" to="-13398603#1"/>
    <trip id="bus167" type="bus_bus" depart="172.36" departLane="best" from="-13471584#0" to="405336611"/>
    <trip id="bus168" type="bus_bus" depart="173.39" departLane="best" from="52121597" to="13453839"/>
    <trip id="bus169" type="bus_bus" depart="174.43" departLane="best" departSpeed="max" from="13392368" to="762787883"/>
    <trip id="bus170" type="bus_bus" depart="175.46" departLane="best" from="406252556" to="13348755"/>
    <trip id="bus171" type="bus_bus" depart="176.49" departLane="best" from="406235390" to="-13355868#2"/>
    <trip id="bus172" type="bus_bus" depart="177.52" departLane="best" departSpeed="max" from="59147515" to="-13392839#1"/>
    <trip id="bus173" type="bus_bus" depart="178.55" departLane="best" departSpeed="max" from="46994947" to="-13442722#0"/>
    <trip id="bus175" type="bus_bus" depart="180.62" departLane="best" departSpeed="max" from="13440741#0" to="-156466457#0"/>
    <trip id="bus176" type="bus_bus" depart="181.65" departLane="best" from="-13372985#4" to="-13331619#1"/>
    <trip id="bus177" type="bus_bus" depart="182.68" departLane="best" from="-405325413" to="13372142"/>
    <trip id="bus179" type="bus_bus" depart="184.75" departLane="best" from="-1036761436" to="-406235355"/>
    <trip id="bus180" type="bus_bus" depart="185.78" departLane="best" from="-13315403#4" to="13449582#1"/>
    <trip id="bus181" type="bus_bus" depart="186.81" departLane="best" departSpeed="max" from="13448913#0" to="-13421352#1"/>
    <trip id="bus182" type="bus_bus" depart="187.84" departLane="best" from="-29611246#3" to="-13313820"/>
    <trip id="bus183" type="bus_bus" depart="188.87" departLane="best" departSpeed="max" from="13403445" to="-29111472#0"/>
    <trip id="bus184" type="bus_bus" depart="189.91" departLane="best" departSpeed="max" from="-13463372" to="405327115"/>
    <trip id="bus186" type="bus_bus" depart="191.97" departLane="best" departSpeed="max" from="-13460181#4" to="1038620963"/>
    <trip id="bus187" type="bus_bus" depart="193.00" departLane="best" from="-406209733#1" to="-13466541"/>
    <trip id="bus188" type="bus_bus" depart="194.04" departLane="best" departSpeed="max" from="-13358246#2" to="1059786553"/>
    <trip id="bus189" type="bus_bus" depart="195.07" departLane="best" from="406242635#8" to="-13425691#4"/>
    <trip id="bus190" type="bus_bus" depart="196.10" departLane="best" from="405550753" to="13394376#1"/>
    <trip id="bus191" type="bus_bus" depart="197.13" departLane="best" departSpeed="max" from="-13453948" to="13357583#1"/>
    <trip id="bus193" type="bus_bus" depart="199.20" departLane="best" from="-654235845#0" to="13373627"/>
    <trip id="bus195" type="bus_bus" depart="201.26" departLane="best" departSpeed="max" from="-798107303" to="13412607#1"/>
    <trip id="bus196" type="bus_bus" depart="202.29" departLane="best" departSpeed="max" from="1224447124" to="406207365"/>
    <trip id="bus198" type="bus_bus" depart="204.36" departLane="best" departSpeed="max" from="-13328420" to="13334435"/>
    <trip id="bus200" type="bus_bus" depart="206.42" departLane="best" from="30140110#1" to="13469774#1"/>
    <trip id="bus202" type="bus_bus" depart="208.48" departLane="best" departSpeed="max" from="-13395371" to="-13285204#1"/>
    <trip id="bus203" type="bus_bus" depart="209.52" departLane="best" departSpeed="max" from="-13420649" to="13304778#2"/>
    <trip id="bus204" type="bus_bus" depart="210.55" departLane="best" from="405324321" to="-13315403#2"/>
    <trip id="bus205" type="bus_bus" depart="211.58" departLane="best" departSpeed="max" from="-465433005" to="13398520#2"/>
    <trip id="bus206" type="bus_bus" depart="212.61" departLane="best" departSpeed="max" from="-13394969" to="13435433"/>
    <trip id="bus208" type="bus_bus" depart="214.68" departLane="best" from="13397196#2" to="-1073803687"/>
    <trip id="bus209" type="bus_bus" depart="215.71" departLane="best" departSpeed="max" from="13458557#0" to="182043871#1"/>
    <trip id="bus210" type="bus_bus" depart="216.74" departLane="best" departSpeed="max" from="-13345599" to="1073800127#8"/>
    <trip id="bus211" type="bus_bus" depart="217.77" departLane="best" departSpeed="max" from="-13385708" to="-578424923"/>
    <trip id="bus212" type="bus_bus" depart="218.81" departLane="best" from="13302477#1" to="-13300979#0"/>
    <trip id="bus213" type="bus_bus" depart="219.84" departLane="best" departSpeed="max" from="-13422482#3" to="308459799"/>
    <trip id="bus214" type="bus_bus" depart="220.87" departLane="best" from="105048553" to="30140042#2"/>
    <trip id="bus215" type="bus_bus" depart="221.90" departLane="best" departSpeed="max" from="13405748#0" to="761868616"/>
    <trip id="bus216" type="bus_bus" depart="222.93" departLane="best" from="13363718#2" to="-46994950#3"/>
    <trip id="bus217" type="bus_bus" depart="223.97" departLane="best" from="405543903" to="13392370#1"/>
    <trip id="bus218" type="bus_bus" depart="225.00" departLane="best" departSpeed="max" from="13435460#0" to="13327960#3"/>
    <trip id="bus219" type="bus_bus" depart="226.03" departLane="best" departSpeed="max" from="366213245#0" to="13357583#1"/>
    <trip id="bus220" type="bus_bus" depart="227.06" departLane="best" from="762888317#0" to="13465288"/>
    <trip id="bus221" type="bus_bus" depart="228.09" departLane="best" from="1250927128" to="-13440636#0"/>
    <trip id="bus223" type="bus_bus" depart="230.16" departLane="best" departSpeed="max" from="13468168#0" to="13342091"/>
    <trip id="bus224" type="bus_bus" depart="231.19" departLane="best" departSpeed="max" from="13387037#0" to="-13448913#0"/>
    <trip id="bus226" type="bus_bus" depart="233.26" departLane="best" departSpeed="max" from="-13435433" to="-182072578"/>
    <trip id="bus227" type="bus_bus" depart="234.29" departLane="best" departSpeed="max" from="13315406" to="-13369411#2"/>
    <trip id="bus228" type="bus_bus" depart="235.32" departLane="best" departSpeed="max" from="-13415553" to="-13433737#2"/>
    <trip id="bus229" type="bus_bus" depart="236.35" departLane="best" from="-13428028#13" to="-13308920#2"/>
    <trip id="bus230" type="bus_bus" depart="237.38" departLane="best" from="406235375" to="13352824#3"/>
    <trip id="bus231" type="bus_bus" depart="238.42" departLane="best" departSpeed="max" from="-46994949#4" to="-13407258#0"/>
    <trip id="bus232" type="bus_bus" depart="239.45" departLane="best" from="-578424250#1" to="340769380"/>
    <trip id="bus233" type="bus_bus" depart="240.48" departLane="best" from="13360316#1" to="13435426#3"/>
    <trip id="bus234" type="bus_bus" depart="241.51" departLane="best" from="405326241" to="156466455"/>
    <trip id="bus235" type="bus_bus" depart="242.54" departLane="best" from="405323162#0" to="-1073803687"/>
    <trip id="bus237" type="bus_bus" depart="244.61" departLane="best" from="-405325378" to="5214237#0"/>
    <trip id="bus238" type="bus_bus" depart="245.64" departLane="best" from="-569214584#3" to="-13468636#1"/>
    <trip id="bus239" type="bus_bus" depart="246.67" departLane="best" departSpeed="max" from="13322636" to="13387358#3"/>
    <trip id="bus242" type="bus_bus" depart="249.77" departLane="best" from="-406215681#1" to="-13389020#0"/>
    <trip id="bus244" type="bus_bus" depart="251.83" departLane="best" departSpeed="max" from="13383763" to="-13287980"/>
    <trip id="bus245" type="bus_bus" depart="252.87" departLane="best" from="-405330528" to="-13363718#13"/>
    <trip id="bus246" type="bus_bus" depart="253.90" departLane="best" departSpeed="max" from="-13286866#2" to="13406211"/>
    <trip id="bus247" type="bus_bus" depart="254.93" departLane="best" from="-13360320#4" to="13298803#2"/>
    <trip id="bus248" type="bus_bus" depart="255.96" departLane="best" departSpeed="max" from="-13303048" to="-406259062"/>
    <trip id="bus250" type="bus_bus" depart="258.03" departLane="best" from="-13463856#2" to="-406259062"/>
    <trip id="bus251" type="bus_bus" depart="259.06" departLane="best" from="13459910#0" to="405324321"/>
    <trip id="bus252" type="bus_bus" depart="260.09" departLane="best" from="13425691#1" to="-13323113#5"/>
    <trip id="bus254" type="bus_bus" depart="262.15" departLane="best" departSpeed="max" from="993181394" to="-405277520#0"/>
    <trip id="bus255" type="bus_bus" depart="263.19" departLane="best" departSpeed="max" from="13395352#0" to="25003162#10"/>
    <trip id="bus256" type="bus_bus" depart="264.22" departLane="best" departSpeed="max" from="13395368" to="13471571#8"/>
    <trip id="bus257" type="bus_bus" depart="265.25" departLane="best" from="406252560" to="-13404578#1"/>
    <trip id="bus258" type="bus_bus" depart="266.28" departLane="best" departSpeed="max" from="-13279075" to="-13379985#0"/>
    <trip id="bus259" type="bus_bus" depart="267.31" departLane="best" departSpeed="max" from="-13357583#3" to="13420649"/>
    <trip id="bus261" type="bus_bus" depart="269.38" departLane="best" from="13425496#1" to="165325742"/>
    <trip id="bus262" type="bus_bus" depart="270.41" departLane="best" departSpeed="max" from="-13379985#2" to="13389503#4"/>
    <trip id="bus264" type="bus_bus" depart="272.48" departLane="best" departSpeed="max" from="30140116#0" to="604060296#3-AddedOffRampEdge"/>
    <trip id="bus265" type="bus_bus" depart="273.51" departLane="best" from="-13346416#1" to="-13286866#0"/>
    <trip id="bus266" type="bus_bus" depart="274.54" departLane="best" from="13461994#1" to="-13425691#4"/>
    <trip id="bus267" type="bus_bus" depart="275.57" departLane="best" departSpeed="max" from="43078594" to="-72016662#0"/>
    <trip id="bus269" type="bus_bus" depart="277.64" departLane="best" departSpeed="max" from="13420521#0" to="13397473"/>
    <trip id="bus270" type="bus_bus" depart="278.67" departLane="best" departSpeed="max" from="-13344110" to="182050924#13"/>
    <trip id="bus273" type="bus_bus" depart="281.76" departLane="best" from="156416005#3" to="366213245#1"/>
    <trip id="bus274" type="bus_bus" depart="282.80" departLane="best" from="645260838" to="405549342#2"/>
    <trip id="bus275" type="bus_bus" depart="283.83" departLane="best" departSpeed="max" from="13297785" to="-30826423#0"/>
    <trip id="bus276" type="bus_bus" depart="284.86" departLane="best" from="405324337" to="405323182"/>
    <trip id="bus279" type="bus_bus" depart="287.96" departLane="best" from="-13428028#9" to="-13254895#2"/>
    <trip id="bus280" type="bus_bus" depart="288.99" departLane="best" departSpeed="max" from="13442735" to="628041456"/>
    <trip id="bus281" type="bus_bus" depart="290.02" departLane="best" from="-13434105#3" to="340698990#3"/>
    <trip id="bus282" type="bus_bus" depart="291.05" departLane="best" from="13315403#2" to="13310793#5"/>
    <trip id="bus283" type="bus_bus" depart="292.09" departLane="best" from="406209734#0" to="13457794"/>
    <trip id="bus284" type="bus_bus" depart="293.12" departLane="best" departSpeed="max" from="-13433211" to="405327140#0"/>
    <trip id="bus285" type="bus_bus" depart="294.15" departLane="best" from="366213245#1" to="-13327960#0"/>
    <trip id="bus286" type="bus_bus" depart="295.18" departLane="best" from="405336648" to="13431378#0"/>
    <trip id="bus290" type="bus_bus" depart="299.31" departLane="best" departSpeed="max" from="-13403194#1" to="-29611124#4"/>
    <trip id="bus291" type="bus_bus" depart="300.34" departLane="best" departSpeed="max" from="-182043871#1" to="405544793"/>
    <trip id="bus293" type="bus_bus" depart="302.41" departLane="best" from="-1166308294#1" to="465433005"/>
    <trip id="bus294" type="bus_bus" depart="303.44" departLane="best" departSpeed="max" from="-13328422" to="13449582#1"/>
    <trip id="bus295" type="bus_bus" depart="304.47" departLane="best" from="-13285369#1" to="1364985591"/>
    <trip id="bus296" type="bus_bus" depart="305.50" departLane="best" departSpeed="max" from="13420521#0" to="13407893#1"/>
    <trip id="bus297" type="bus_bus" depart="306.53" departLane="best" departSpeed="max" from="13287980" to="29276189"/>
    <trip id="bus298" type="bus_bus" depart="307.57" departLane="best" departSpeed="max" from="-13334435" to="-13420408#2"/>