<?xml version="1.0" encoding="UTF-8"?>

<!-- generated on 2025-05-26 23:21:43 by Eclipse SUMO netedit Version 1.22.0
-->

<routes xmlns:xsi="http://www.w3.org/2001/XMLSchema-instance" xsi:noNamespaceSchemaLocation="http://sumo.dlr.de/xsd/routes_file.xsd">
    <!-- VTypes -->
    <vType id="bus" vClass="bus"/>
    <!-- Vehicles, persons and containers (sorted by depart) -->
    <trip id="t_0" type="bus" depart="0.00" from="-406234630#2" to="406242924#0" via="-243612604#1 -243612604#0 -4480316#1 406233346 334631993#1 406233344 640278675 192503244#0 405546351 405546352 405546350#0 405546350#1 405546357 525615994 525615993 405546353 405546349 405546354 405546355 405546348 405546356 405546347#0 334631554#0 604060294 1036500992 405544793 405544795#0 415101865#0 1029507042 406215604 406215675 406215647 406215694 406215598 406215613#0 -187986225#2 -187986225#0 187986237 187986225#1 406216724#0 406215688 406215698#0 406215698#1 406215685 406215666 406215636 406215616 406215621 406215634#0 292716907 414764044#0 405545577#0 604060295 604060296#0 604060296#3 604060296#3-AddedOffRampEdge 604060296#4 405545583#0 405545584#0 405545584#2 1014617514 405545580 604060292 604060288 405545578 1264201012 406234624#0 630143605 406233348 406233343 406233349#0 406242645#0 406242639 406242917"/>
    <flow id="f_0" begin="0.00" color="red" from="271237812#0" to="-406215624" via="271237812#1 406216738 406216736 406216734 1064346357 406216739 406216737 406216735 406216729 406216725#0 406216724#0 406215688 406215698#0 406215698#1 406215685 406215666 406215636 406215616 406215621 406215634#0 292716907 -406215639#2 -690987761 -406504587 -72011935 -406215655 -406215610 -406215659" end="3600.00" vehsPerHour="800"/>
    <flow id="f_1" begin="0.00" color="red" from="406215655" to="406216740#0" via="406215650 406504587 690987758 406215639#0 -292716907 415101865#0 1029507042 406215608 406215604 406215675 406215647 406215694 406215598 406215613#0" end="3600.00" vehsPerHour="800"/>
    <flow id="f_2" begin="0.00" color="red" from="755844274" to="334267468#0" via="755844260#0 259846930#0 1008405679 406233345 1065518636#0 406233346 334631993#1 406233344 640278675 192503244#0 405546351 405546352 405546350#0 405546350#1 405546357 525615994 525615993 405546353 405546349 405546354 405546355 405546348 405546356 405546347#0 334631554#0 604060294 1036500992 405544793 405544795#0" end="3600.00" vehsPerHour="800"/>
</routes>
