<routes>
    <vehicle id="t1C7-b27B4-sl4" route="t1C7-b27B4-sl4" type="bus" depart="22710" line="t1C7-b27B4-sl4">
        <param key="gtfs.route_name" value="178"/>
        <param key="gtfs.trip_headsign" value="West: El Monte Station"/>
    </vehicle>
    <vehicle id="t1F4-b2714-sl4" route="t1F4-b2714-sl4" type="bus" depart="18000" line="t1F4-b2714-sl4">
        <param key="gtfs.route_name" value="178"/>
        <param key="gtfs.trip_headsign" value="East: Puente Hills Mall"/>
    </vehicle>
    <vehicle id="t20D-b2791-sl4" route="t1C7-b27B4-sl4" type="bus" depart="24842" line="t1C7-b27B4-sl4">
        <param key="gtfs.route_name" value="178"/>
        <param key="gtfs.trip_headsign" value="West: El Monte Station via Baldwin"/>
    </vehicle>
    <vehicle id="t212-b2726-sl4" route="t1F4-b2714-sl4" type="bus" depart="19800" line="t1F4-b2714-sl4">
        <param key="gtfs.route_name" value="178"/>
        <param key="gtfs.trip_headsign" value="East: Puente Hills Mall"/>
    </vehicle>
    <vehicle id="t22B-b2716-sl4" route="t1C7-b27B4-sl4" type="bus" depart="26702" line="t1C7-b27B4-sl4">
        <param key="gtfs.route_name" value="178"/>
        <param key="gtfs.trip_headsign" value="West: El Monte Station via Baldwin"/>
    </vehicle>
    <vehicle id="t258-b2718-sl4" route="t1F4-b2714-sl4" type="bus" depart="21600" line="t1F4-b2714-sl4">
        <param key="gtfs.route_name" value="178"/>
        <param key="gtfs.trip_headsign" value="East: Puente Hills Mall via Baldwin"/>
    </vehicle>
    <vehicle id="t271-b2717-sl4" route="t1C7-b27B4-sl4" type="bus" depart="28502" line="t1C7-b27B4-sl4">
        <param key="gtfs.route_name" value="178"/>
        <param key="gtfs.trip_headsign" value="West: El Monte Station via Baldwin"/>
    </vehicle>
    <vehicle id="t276-b2719-sl4" route="t1F4-b2714-sl4" type="bus" depart="23400" line="t1F4-b2714-sl4">
        <param key="gtfs.route_name" value="178"/>
        <param key="gtfs.trip_headsign" value="East: Puente Hills Mall via Baldwin"/>
    </vehicle>
    <vehicle id="t28F-b2714-sl4" route="t1C7-b27B4-sl4" type="bus" depart="30602" line="t1C7-b27B4-sl4">
        <param key="gtfs.route_name" value="178"/>
        <param key="gtfs.trip_headsign" value="West: El Monte Station via Baldwin"/>
    </vehicle>
    <vehicle id="t2BC-b2715-sl4" route="t1F4-b2714-sl4" type="bus" depart="25200" line="t1F4-b2714-sl4">
        <param key="gtfs.route_name" value="178"/>
        <param key="gtfs.trip_headsign" value="East: Puente Hills Mall via Baldwin"/>
    </vehicle>
    <vehicle id="t2D5-b2778-sl4" route="t1C7-b27B4-sl4" type="bus" depart="32222" line="t1C7-b27B4-sl4">
        <param key="gtfs.route_name" value="178"/>
        <param key="gtfs.trip_headsign" value="West: El Monte Station"/>
    </vehicle>
    <vehicle id="t2DA-b2729-sl4" route="t1F4-b2714-sl4" type="bus" depart="27000" line="t1F4-b2714-sl4">
        <param key="gtfs.route_name" value="178"/>
        <param key="gtfs.trip_headsign" value="East: Puente Hills Mall via Baldwin"/>
    </vehicle>
    <vehicle id="t2F3-b2718-sl4" route="t1C7-b27B4-sl4" type="bus" depart="34322" line="t1C7-b27B4-sl4">
        <param key="gtfs.route_name" value="178"/>
        <param key="gtfs.trip_headsign" value="West: El Monte Station via Baldwin"/>
    </vehicle>
    <vehicle id="t320-b2712-sl4" route="t1F4-b2714-sl4" type="bus" depart="28800" line="t1F4-b2714-sl4">
        <param key="gtfs.route_name" value="178"/>
        <param key="gtfs.trip_headsign" value="East: Puente Hills Mall via Baldwin"/>
    </vehicle>
    <vehicle id="t339-b2719-sl4" route="t1C7-b27B4-sl4" type="bus" depart="35882" line="t1C7-b27B4-sl4">
        <param key="gtfs.route_name" value="178"/>
        <param key="gtfs.trip_headsign" value="West: El Monte Station"/>
    </vehicle>
    <vehicle id="t33E-b2711-sl4" route="t1F4-b2714-sl4" type="bus" depart="30600" line="t1F4-b2714-sl4">
        <param key="gtfs.route_name" value="178"/>
        <param key="gtfs.trip_headsign" value="East: Puente Hills Mall via Baldwin"/>
    </vehicle>
    <vehicle id="t357-b271A-sl4" route="t1C7-b27B4-sl4" type="bus" depart="37982" line="t1C7-b27B4-sl4">
        <param key="gtfs.route_name" value="178"/>
        <param key="gtfs.trip_headsign" value="West: El Monte Station via Baldwin"/>
    </vehicle>
    <vehicle id="t384-b27C6-sl4" route="t1F4-b2714-sl4" type="bus" depart="32400" line="t1F4-b2714-sl4">
        <param key="gtfs.route_name" value="178"/>
        <param key="gtfs.trip_headsign" value="East: Puente Hills Mall via Baldwin"/>
    </vehicle>
    <vehicle id="t39D-b2715-sl4" route="t1C7-b27B4-sl4" type="bus" depart="39482" line="t1C7-b27B4-sl4">
        <param key="gtfs.route_name" value="178"/>
        <param key="gtfs.trip_headsign" value="West: El Monte Station"/>
    </vehicle>
    <vehicle id="t3A2-b2736-sl4" route="t1F4-b2714-sl4" type="bus" depart="34200" line="t1F4-b2714-sl4">
        <param key="gtfs.route_name" value="178"/>
        <param key="gtfs.trip_headsign" value="East: Puente Hills Mall"/>
    </vehicle>
    <vehicle id="t3BB-b2712-sl4" route="t1C7-b27B4-sl4" type="bus" depart="41282" line="t1C7-b27B4-sl4">
        <param key="gtfs.route_name" value="178"/>
        <param key="gtfs.trip_headsign" value="West: El Monte Station"/>
    </vehicle>
    <vehicle id="t3E8-b2775-sl4" route="t1F4-b2714-sl4" type="bus" depart="36000" line="t1F4-b2714-sl4">
        <param key="gtfs.route_name" value="178"/>
        <param key="gtfs.trip_headsign" value="East: Puente Hills Mall via Baldwin"/>
    </vehicle>
    <vehicle id="t401-b2711-sl4" route="t1C7-b27B4-sl4" type="bus" depart="43382" line="t1C7-b27B4-sl4">
        <param key="gtfs.route_name" value="178"/>
        <param key="gtfs.trip_headsign" value="West: El Monte Station via Baldwin"/>
    </vehicle>
    <vehicle id="t406-b27B3-sl4" route="t1F4-b2714-sl4" type="bus" depart="37800" line="t1F4-b2714-sl4">
        <param key="gtfs.route_name" value="178"/>
        <param key="gtfs.trip_headsign" value="East: Puente Hills Mall"/>
    </vehicle>
    <vehicle id="t41F-b2713-sl4" route="t1C7-b27B4-sl4" type="bus" depart="44882" line="t1C7-b27B4-sl4">
        <param key="gtfs.route_name" value="178"/>
        <param key="gtfs.trip_headsign" value="West: El Monte Station"/>
    </vehicle>
    <vehicle id="t44C-b2796-sl4" route="t1F4-b2714-sl4" type="bus" depart="39600" line="t1F4-b2714-sl4">
        <param key="gtfs.route_name" value="178"/>
        <param key="gtfs.trip_headsign" value="East: Puente Hills Mall via Baldwin"/>
    </vehicle>
    <vehicle id="t465-b27DB-sl4" route="t1C7-b27B4-sl4" type="bus" depart="46982" line="t1C7-b27B4-sl4">
        <param key="gtfs.route_name" value="178"/>
        <param key="gtfs.trip_headsign" value="West: El Monte Station via Baldwin"/>
    </vehicle>
    <vehicle id="t46A-b2715-sl4" route="t1F4-b2714-sl4" type="bus" depart="41400" line="t1F4-b2714-sl4">
        <param key="gtfs.route_name" value="178"/>
        <param key="gtfs.trip_headsign" value="East: Puente Hills Mall via Baldwin"/>
    </vehicle>
    <vehicle id="t483-b27DC-sl4" route="t1C7-b27B4-sl4" type="bus" depart="48902" line="t1C7-b27B4-sl4">
        <param key="gtfs.route_name" value="178"/>
        <param key="gtfs.trip_headsign" value="West: El Monte Station via Baldwin"/>
    </vehicle>
    <vehicle id="t4B0-b2762-sl4" route="t1F4-b2714-sl4" type="bus" depart="43200" line="t1F4-b2714-sl4">
        <param key="gtfs.route_name" value="178"/>
        <param key="gtfs.trip_headsign" value="East: Puente Hills Mall via Baldwin"/>
    </vehicle>
    <vehicle id="t4C9-b27C7-sl4" route="t1C7-b27B4-sl4" type="bus" depart="50702" line="t1C7-b27B4-sl4">
        <param key="gtfs.route_name" value="178"/>
        <param key="gtfs.trip_headsign" value="West: El Monte Station via Baldwin"/>
    </vehicle>
    <vehicle id="t4CE-b2711-sl4" route="t1F4-b2714-sl4" type="bus" depart="45000" line="t1F4-b2714-sl4">
        <param key="gtfs.route_name" value="178"/>
        <param key="gtfs.trip_headsign" value="East: Puente Hills Mall via Baldwin"/>
    </vehicle>
    <vehicle id="t4E7-b2716-sl4" route="t1C7-b27B4-sl4" type="bus" depart="52082" line="t1C7-b27B4-sl4">
        <param key="gtfs.route_name" value="178"/>
        <param key="gtfs.trip_headsign" value="West: El Monte Station"/>
    </vehicle>
    <vehicle id="t514-b271A-sl4" route="t1F4-b2714-sl4" type="bus" depart="46800" line="t1F4-b2714-sl4">
        <param key="gtfs.route_name" value="178"/>
        <param key="gtfs.trip_headsign" value="East: Puente Hills Mall via Baldwin"/>
    </vehicle>
    <vehicle id="t52D-b2717-sl4" route="t1C7-b27B4-sl4" type="bus" depart="54302" line="t1C7-b27B4-sl4">
        <param key="gtfs.route_name" value="178"/>
        <param key="gtfs.trip_headsign" value="West: El Monte Station via Baldwin"/>
    </vehicle>
    <vehicle id="t532-b271D-sl4" route="t1F4-b2714-sl4" type="bus" depart="48600" line="t1F4-b2714-sl4">
        <param key="gtfs.route_name" value="178"/>
        <param key="gtfs.trip_headsign" value="East: Puente Hills Mall"/>
    </vehicle>
    <vehicle id="t54B-b2762-sl4" route="t1C7-b27B4-sl4" type="bus" depart="55682" line="t1C7-b27B4-sl4">
        <param key="gtfs.route_name" value="178"/>
        <param key="gtfs.trip_headsign" value="West: El Monte Station"/>
    </vehicle>
    <vehicle id="t578-b27E2-sl4" route="t1F4-b2714-sl4" type="bus" depart="50400" line="t1F4-b2714-sl4">
        <param key="gtfs.route_name" value="178"/>
        <param key="gtfs.trip_headsign" value="East: Puente Hills Mall via Baldwin"/>
    </vehicle>
    <vehicle id="t591-b271F-sl4" route="t1C7-b27B4-sl4" type="bus" depart="57902" line="t1C7-b27B4-sl4">
        <param key="gtfs.route_name" value="178"/>
        <param key="gtfs.trip_headsign" value="West: El Monte Station via Baldwin"/>
    </vehicle>
    <vehicle id="t596-b27E3-sl4" route="t1F4-b2714-sl4" type="bus" depart="52200" line="t1F4-b2714-sl4">
        <param key="gtfs.route_name" value="178"/>
        <param key="gtfs.trip_headsign" value="East: Puente Hills Mall via Baldwin"/>
    </vehicle>
    <vehicle id="t5AF-b27AF-sl4" route="t1C7-b27B4-sl4" type="bus" depart="59702" line="t1C7-b27B4-sl4">
        <param key="gtfs.route_name" value="178"/>
        <param key="gtfs.trip_headsign" value="West: El Monte Station via Baldwin"/>
    </vehicle>
    <vehicle id="t5DC-b271B-sl4" route="t1F4-b2714-sl4" type="bus" depart="54000" line="t1F4-b2714-sl4">
        <param key="gtfs.route_name" value="178"/>
        <param key="gtfs.trip_headsign" value="East: Puente Hills Mall via Baldwin"/>
    </vehicle>
    <vehicle id="t5F6-b27AE-sl4" route="t1C7-b27B4-sl4" type="bus" depart="61562" line="t1C7-b27B4-sl4">
        <param key="gtfs.route_name" value="178"/>
        <param key="gtfs.trip_headsign" value="West: El Monte Station via Baldwin"/>
    </vehicle>
    <vehicle id="t5FA-b271C-sl4" route="t1F4-b2714-sl4" type="bus" depart="55800" line="t1F4-b2714-sl4">
        <param key="gtfs.route_name" value="178"/>
        <param key="gtfs.trip_headsign" value="East: Puente Hills Mall via Baldwin"/>
    </vehicle>
    <vehicle id="t640-b27B1-sl4" route="t1F4-b2714-sl4" type="bus" depart="57600" line="t1F4-b2714-sl4">
        <param key="gtfs.route_name" value="178"/>
        <param key="gtfs.trip_headsign" value="East: Puente Hills Mall via Baldwin"/>
    </vehicle>
    <vehicle id="t640-b27C3-sl4" route="t1C7-b27B4-sl4" type="bus" depart="63182" line="t1C7-b27B4-sl4">
        <param key="gtfs.route_name" value="178"/>
        <param key="gtfs.trip_headsign" value="West: El Monte Station"/>
    </vehicle>
    <vehicle id="t65E-b2722-sl4" route="t1F4-b2714-sl4" type="bus" depart="59400" line="t1F4-b2714-sl4">
        <param key="gtfs.route_name" value="178"/>
        <param key="gtfs.trip_headsign" value="East: Puente Hills Mall via Baldwin"/>
    </vehicle>
    <vehicle id="t663-b271D-sl4" route="t1C7-b27B4-sl4" type="bus" depart="65702" line="t1C7-b27B4-sl4">
        <param key="gtfs.route_name" value="178"/>
        <param key="gtfs.trip_headsign" value="West: El Monte Station via Baldwin"/>
    </vehicle>
    <vehicle id="t6A4-b271F-sl4" route="t1F4-b2714-sl4" type="bus" depart="61200" line="t1F4-b2714-sl4">
        <param key="gtfs.route_name" value="178"/>
        <param key="gtfs.trip_headsign" value="East: Puente Hills Mall via Baldwin"/>
    </vehicle>
    <vehicle id="t6A9-b271B-sl4" route="t1C7-b27B4-sl4" type="bus" depart="67622" line="t1C7-b27B4-sl4">
        <param key="gtfs.route_name" value="178"/>
        <param key="gtfs.trip_headsign" value="West: El Monte Station via Baldwin"/>
    </vehicle>
    <vehicle id="t6C2-b2713-sl4" route="t1F4-b2714-sl4" type="bus" depart="63000" line="t1F4-b2714-sl4">
        <param key="gtfs.route_name" value="178"/>
        <param key="gtfs.trip_headsign" value="East: Puente Hills Mall via Baldwin"/>
    </vehicle>
    <vehicle id="t6C7-b271C-sl4" route="t1C7-b27B4-sl4" type="bus" depart="69362" line="t1C7-b27B4-sl4">
        <param key="gtfs.route_name" value="178"/>
        <param key="gtfs.trip_headsign" value="West: El Monte Station via Baldwin"/>
    </vehicle>
    <vehicle id="t708-b271E-sl4" route="t1F4-b2714-sl4" type="bus" depart="64800" line="t1F4-b2714-sl4">
        <param key="gtfs.route_name" value="178"/>
        <param key="gtfs.trip_headsign" value="East: Puente Hills Mall via Baldwin"/>
    </vehicle>
    <vehicle id="t70D-b27B1-sl4" route="t1C7-b27B4-sl4" type="bus" depart="71162" line="t1C7-b27B4-sl4">
        <param key="gtfs.route_name" value="178"/>
        <param key="gtfs.trip_headsign" value="West: El Monte Station via Baldwin"/>
    </vehicle>
    <vehicle id="t726-b2720-sl4" route="t1F4-b2714-sl4" type="bus" depart="66600" line="t1F4-b2714-sl4">
        <param key="gtfs.route_name" value="178"/>
        <param key="gtfs.trip_headsign" value="East: Puente Hills Mall via Baldwin"/>
    </vehicle>
    <vehicle id="t72B-b2722-sl4" route="t1C7-b27B4-sl4" type="bus" depart="72542" line="t1C7-b27B4-sl4">
        <param key="gtfs.route_name" value="178"/>
        <param key="gtfs.trip_headsign" value="West: El Monte Station"/>
    </vehicle>
    <vehicle id="t76C-b2721-sl4" route="t1F4-b2714-sl4" type="bus" depart="68400" line="t1F4-b2714-sl4">
        <param key="gtfs.route_name" value="178"/>
        <param key="gtfs.trip_headsign" value="East: Puente Hills Mall"/>
    </vehicle>
    <vehicle id="t771-b27DF-sl4" route="t1C7-b27B4-sl4" type="bus" depart="74222" line="t1C7-b27B4-sl4">
        <param key="gtfs.route_name" value="178"/>
        <param key="gtfs.trip_headsign" value="West: El Monte Station"/>
    </vehicle>
    <vehicle id="t78A-b27A2-sl4" route="t1F4-b2714-sl4" type="bus" depart="70200" line="t1F4-b2714-sl4">
        <param key="gtfs.route_name" value="178"/>
        <param key="gtfs.trip_headsign" value="East: Puente Hills Mall"/>
    </vehicle>
    <vehicle id="t78F-b2713-sl4" route="t1C7-b27B4-sl4" type="bus" depart="75962" line="t1C7-b27B4-sl4">
        <param key="gtfs.route_name" value="178"/>
        <param key="gtfs.trip_headsign" value="West: El Monte Station"/>
    </vehicle>
    <vehicle id="t7D0-b271D-sl4" route="t1F4-b2714-sl4" type="bus" depart="72000" line="t1F4-b2714-sl4">
        <param key="gtfs.route_name" value="178"/>
        <param key="gtfs.trip_headsign" value="East: Puente Hills Mall"/>
    </vehicle>
    <vehicle id="t7D5-b271E-sl4" route="t1C7-b27B4-sl4" type="bus" depart="77642" line="t1C7-b27B4-sl4">
        <param key="gtfs.route_name" value="178"/>
        <param key="gtfs.trip_headsign" value="West: El Monte Station"/>
    </vehicle>
    <vehicle id="t7EE-b27B2-sl4" route="t1F4-b2714-sl4" type="bus" depart="73800" line="t1F4-b2714-sl4">
        <param key="gtfs.route_name" value="178"/>
        <param key="gtfs.trip_headsign" value="East: Puente Hills Mall"/>
    </vehicle>
    <vehicle id="t7F3-b2720-sl4" route="t1C7-b27B4-sl4" type="bus" depart="79442" line="t1C7-b27B4-sl4">
        <param key="gtfs.route_name" value="178"/>
        <param key="gtfs.trip_headsign" value="West: El Monte Station"/>
    </vehicle>
    <vehicle id="t834-b2789-sl4" route="t1F4-b2714-sl4" type="bus" depart="75600" line="t1F4-b2714-sl4">
        <param key="gtfs.route_name" value="178"/>
        <param key="gtfs.trip_headsign" value="East: Puente Hills Mall"/>
    </vehicle>
    <vehicle id="t839-b2731-sl4" route="t1C7-b27B4-sl4" type="bus" depart="81242" line="t1C7-b27B4-sl4">
        <param key="gtfs.route_name" value="178"/>
        <param key="gtfs.trip_headsign" value="West: El Monte Station"/>
    </vehicle>
    <vehicle id="t857-b2721-sl4" route="t1C7-b27B4-sl4" type="bus" depart="83042" line="t1C7-b27B4-sl4">
        <param key="gtfs.route_name" value="178"/>
        <param key="gtfs.trip_headsign" value="West: El Monte Station"/>
    </vehicle>
    <vehicle id="t14-b2784-sl4" route="t14-b2784-sl4" type="bus" depart="90322" line="t14-b2784-sl4">
        <param key="gtfs.route_name" value="190"/>
        <param key="gtfs.trip_headsign" value="West: El Monte Station"/>
    </vehicle>
    <vehicle id="t14-b27A3-sl4" route="t14-b27A3-sl4" type="bus" depart="87600" line="t14-b27A3-sl4">
        <param key="gtfs.route_name" value="190"/>
        <param key="gtfs.trip_headsign" value="East: Cal Poly Pomona"/>
    </vehicle>
    <vehicle id="t1B8-b2775-sl4" route="t14-b2784-sl4" type="bus" depart="19813" line="t14-b2784-sl4">
        <param key="gtfs.route_name" value="190"/>
        <param key="gtfs.trip_headsign" value="West: El Monte Station"/>
    </vehicle>
    <vehicle id="t1FE-b2776-sl4" route="t14-b2784-sl4" type="bus" depart="21793" line="t14-b2784-sl4">
        <param key="gtfs.route_name" value="190"/>
        <param key="gtfs.trip_headsign" value="West: El Monte Station"/>
    </vehicle>
    <vehicle id="t1FE-b2777-sl4" route="t14-b27A3-sl4" type="bus" depart="18600" line="t14-b27A3-sl4">
        <param key="gtfs.route_name" value="190"/>
        <param key="gtfs.trip_headsign" value="East: Cal Poly Pomona"/>
    </vehicle>
    <vehicle id="t212-b2790-sl4" route="t14-b2784-sl4" type="bus" depart="22993" line="t14-b2784-sl4">
        <param key="gtfs.route_name" value="190"/>
        <param key="gtfs.trip_headsign" value="West: El Monte Station"/>
    </vehicle>
    <vehicle id="t21C-b2779-sl4" route="t14-b27A3-sl4" type="bus" depart="20400" line="t14-b27A3-sl4">
        <param key="gtfs.route_name" value="190"/>
        <param key="gtfs.trip_headsign" value="East: Cal Poly Pomona"/>
    </vehicle>
    <vehicle id="t226-b2715-sl4" route="t14-b2784-sl4" type="bus" depart="24387" line="t14-b2784-sl4">
        <param key="gtfs.route_name" value="190"/>
        <param key="gtfs.trip_headsign" value="West: El Monte Station"/>
    </vehicle>
    <vehicle id="t258-b2774-sl4" route="t14-b27A3-sl4" type="bus" depart="21600" line="t14-b27A3-sl4">
        <param key="gtfs.route_name" value="190"/>
        <param key="gtfs.trip_headsign" value="East: Cal Poly Pomona"/>
    </vehicle>
    <vehicle id="t262-b2729-sl4" route="t14-b2784-sl4" type="bus" depart="25587" line="t14-b2784-sl4">
        <param key="gtfs.route_name" value="190"/>
        <param key="gtfs.trip_headsign" value="West: El Monte Station"/>
    </vehicle>
    <vehicle id="t26C-b2776-sl4" route="t14-b27A3-sl4" type="bus" depart="22800" line="t14-b27A3-sl4">
        <param key="gtfs.route_name" value="190"/>
        <param key="gtfs.trip_headsign" value="East: Cal Poly Pomona"/>
    </vehicle>
    <vehicle id="t276-b2777-sl4" route="t14-b2784-sl4" type="bus" depart="26944" line="t14-b2784-sl4">
        <param key="gtfs.route_name" value="190"/>
        <param key="gtfs.trip_headsign" value="West: El Monte Station"/>
    </vehicle>
    <vehicle id="t280-b2775-sl4" route="t14-b27A3-sl4" type="bus" depart="24000" line="t14-b27A3-sl4">
        <param key="gtfs.route_name" value="190"/>
        <param key="gtfs.trip_headsign" value="East: Cal Poly Pomona"/>
    </vehicle>
    <vehicle id="t285-b277C-sl4" route="t14-b2784-sl4" type="bus" depart="27844" line="t14-b2784-sl4">
        <param key="gtfs.route_name" value="190"/>
        <param key="gtfs.trip_headsign" value="West: El Monte Station"/>
    </vehicle>
    <vehicle id="t2BC-b2779-sl4" route="t14-b2784-sl4" type="bus" depart="28864" line="t14-b2784-sl4">
        <param key="gtfs.route_name" value="190"/>
        <param key="gtfs.trip_headsign" value="West: El Monte Station"/>
    </vehicle>
    <vehicle id="t2BC-b277D-sl4" route="t14-b27A3-sl4" type="bus" depart="25200" line="t14-b27A3-sl4">
        <param key="gtfs.route_name" value="190"/>
        <param key="gtfs.trip_headsign" value="East: Cal Poly Pomona"/>
    </vehicle>
    <vehicle id="t2CB-b2774-sl4" route="t14-b2784-sl4" type="bus" depart="30004" line="t14-b2784-sl4">
        <param key="gtfs.route_name" value="190"/>
        <param key="gtfs.trip_headsign" value="West: El Monte Station"/>
    </vehicle>
    <vehicle id="t2D0-b277B-sl4" route="t14-b27A3-sl4" type="bus" depart="26400" line="t14-b27A3-sl4">
        <param key="gtfs.route_name" value="190"/>
        <param key="gtfs.trip_headsign" value="East: Cal Poly Pomona"/>
    </vehicle>
    <vehicle id="t2DF-b277E-sl4" route="t14-b2784-sl4" type="bus" depart="31204" line="t14-b2784-sl4">
        <param key="gtfs.route_name" value="190"/>
        <param key="gtfs.trip_headsign" value="West: El Monte Station"/>
    </vehicle>
    <vehicle id="t2E4-b277F-sl4" route="t14-b27A3-sl4" type="bus" depart="27600" line="t14-b27A3-sl4">
        <param key="gtfs.route_name" value="190"/>
        <param key="gtfs.trip_headsign" value="East: Cal Poly Pomona"/>
    </vehicle>
    <vehicle id="t2E9-b27B3-sl4" route="t14-b2784-sl4" type="bus" depart="31804" line="t14-b2784-sl4">
        <param key="gtfs.route_name" value="190"/>
        <param key="gtfs.trip_headsign" value="West: El Monte Station"/>
    </vehicle>
    <vehicle id="t320-b2775-sl4" route="t14-b2784-sl4" type="bus" depart="32764" line="t14-b2784-sl4">
        <param key="gtfs.route_name" value="190"/>
        <param key="gtfs.trip_headsign" value="West: El Monte Station"/>
    </vehicle>
    <vehicle id="t320-b277A-sl4" route="t14-b27A3-sl4" type="bus" depart="28800" line="t14-b27A3-sl4">
        <param key="gtfs.route_name" value="190"/>
        <param key="gtfs.trip_headsign" value="East: Cal Poly Pomona"/>
    </vehicle>
    <vehicle id="t32F-b2776-sl4" route="t14-b2784-sl4" type="bus" depart="33664" line="t14-b2784-sl4">
        <param key="gtfs.route_name" value="190"/>
        <param key="gtfs.trip_headsign" value="West: El Monte Station"/>
    </vehicle>
    <vehicle id="t334-b2779-sl4" route="t14-b27A3-sl4" type="bus" depart="30000" line="t14-b27A3-sl4">
        <param key="gtfs.route_name" value="190"/>
        <param key="gtfs.trip_headsign" value="East: Cal Poly Pomona"/>
    </vehicle>
    <vehicle id="t33E-b277D-sl4" route="t14-b2784-sl4" type="bus" depart="34564" line="t14-b2784-sl4">
        <param key="gtfs.route_name" value="190"/>
        <param key="gtfs.trip_headsign" value="West: El Monte Station"/>
    </vehicle>
    <vehicle id="t348-b2774-sl4" route="t14-b27A3-sl4" type="bus" depart="31200" line="t14-b27A3-sl4">
        <param key="gtfs.route_name" value="190"/>
        <param key="gtfs.trip_headsign" value="East: Cal Poly Pomona"/>
    </vehicle>
    <vehicle id="t34D-b277B-sl4" route="t14-b2784-sl4" type="bus" depart="35464" line="t14-b2784-sl4">
        <param key="gtfs.route_name" value="190"/>
        <param key="gtfs.trip_headsign" value="West: El Monte Station"/>
    </vehicle>
    <vehicle id="t384-b277E-sl4" route="t14-b27A3-sl4" type="bus" depart="32400" line="t14-b27A3-sl4">
        <param key="gtfs.route_name" value="190"/>
        <param key="gtfs.trip_headsign" value="East: Cal Poly Pomona"/>
    </vehicle>
    <vehicle id="t384-b278D-sl4" route="t14-b2784-sl4" type="bus" depart="36484" line="t14-b2784-sl4">
        <param key="gtfs.route_name" value="190"/>
        <param key="gtfs.trip_headsign" value="West: El Monte Station"/>
    </vehicle>
    <vehicle id="t398-b275B-sl4" route="t14-b27A3-sl4" type="bus" depart="33600" line="t14-b27A3-sl4">
        <param key="gtfs.route_name" value="190"/>
        <param key="gtfs.trip_headsign" value="East: Cal Poly Pomona"/>
    </vehicle>
    <vehicle id="t3A2-b277F-sl4" route="t14-b2784-sl4" type="bus" depart="38464" line="t14-b2784-sl4">
        <param key="gtfs.route_name" value="190"/>
        <param key="gtfs.trip_headsign" value="West: El Monte Station"/>
    </vehicle>
    <vehicle id="t3B6-b2778-sl4" route="t14-b27A3-sl4" type="bus" depart="35400" line="t14-b27A3-sl4">
        <param key="gtfs.route_name" value="190"/>
        <param key="gtfs.trip_headsign" value="East: Cal Poly Pomona"/>
    </vehicle>
    <vehicle id="t3E8-b2774-sl4" route="t14-b2784-sl4" type="bus" depart="40264" line="t14-b2784-sl4">
        <param key="gtfs.route_name" value="190"/>
        <param key="gtfs.trip_headsign" value="West: El Monte Station"/>
    </vehicle>
    <vehicle id="t3FC-b278D-sl4" route="t14-b27A3-sl4" type="bus" depart="37200" line="t14-b27A3-sl4">
        <param key="gtfs.route_name" value="190"/>
        <param key="gtfs.trip_headsign" value="East: Cal Poly Pomona"/>
    </vehicle>
    <vehicle id="t406-b2779-sl4" route="t14-b2784-sl4" type="bus" depart="42064" line="t14-b2784-sl4">
        <param key="gtfs.route_name" value="190"/>
        <param key="gtfs.trip_headsign" value="West: El Monte Station"/>
    </vehicle>
    <vehicle id="t41A-b2781-sl4" route="t14-b27A3-sl4" type="bus" depart="39000" line="t14-b27A3-sl4">
        <param key="gtfs.route_name" value="190"/>
        <param key="gtfs.trip_headsign" value="East: Cal Poly Pomona"/>
    </vehicle>
    <vehicle id="t44C-b275B-sl4" route="t14-b2784-sl4" type="bus" depart="43864" line="t14-b2784-sl4">
        <param key="gtfs.route_name" value="190"/>
        <param key="gtfs.trip_headsign" value="West: El Monte Station"/>
    </vehicle>
    <vehicle id="t460-b2725-sl4" route="t14-b27A3-sl4" type="bus" depart="40800" line="t14-b27A3-sl4">
        <param key="gtfs.route_name" value="190"/>
        <param key="gtfs.trip_headsign" value="East: Cal Poly Pomona"/>
    </vehicle>
    <vehicle id="t46A-b2778-sl4" route="t14-b2784-sl4" type="bus" depart="45664" line="t14-b2784-sl4">
        <param key="gtfs.route_name" value="190"/>
        <param key="gtfs.trip_headsign" value="West: El Monte Station"/>
    </vehicle>
    <vehicle id="t47E-b2714-sl4" route="t14-b27A3-sl4" type="bus" depart="42600" line="t14-b27A3-sl4">
        <param key="gtfs.route_name" value="190"/>
        <param key="gtfs.trip_headsign" value="East: Cal Poly Pomona"/>
    </vehicle>
    <vehicle id="t4B0-b2782-sl4" route="t14-b2784-sl4" type="bus" depart="47464" line="t14-b2784-sl4">
        <param key="gtfs.route_name" value="190"/>
        <param key="gtfs.trip_headsign" value="West: El Monte Station"/>
    </vehicle>
    <vehicle id="t4C4-b275B-sl4" route="t14-b27A3-sl4" type="bus" depart="44400" line="t14-b27A3-sl4">
        <param key="gtfs.route_name" value="190"/>
        <param key="gtfs.trip_headsign" value="East: Cal Poly Pomona"/>
    </vehicle>
    <vehicle id="t4CE-b2781-sl4" route="t14-b2784-sl4" type="bus" depart="49264" line="t14-b2784-sl4">
        <param key="gtfs.route_name" value="190"/>
        <param key="gtfs.trip_headsign" value="West: El Monte Station"/>
    </vehicle>
    <vehicle id="t4E2-b27F2-sl4" route="t14-b27A3-sl4" type="bus" depart="46200" line="t14-b27A3-sl4">
        <param key="gtfs.route_name" value="190"/>
        <param key="gtfs.trip_headsign" value="East: Cal Poly Pomona"/>
    </vehicle>
    <vehicle id="t514-b271C-sl4" route="t14-b2784-sl4" type="bus" depart="51064" line="t14-b2784-sl4">
        <param key="gtfs.route_name" value="190"/>
        <param key="gtfs.trip_headsign" value="West: El Monte Station"/>
    </vehicle>
    <vehicle id="t528-b2713-sl4" route="t14-b27A3-sl4" type="bus" depart="48000" line="t14-b27A3-sl4">
        <param key="gtfs.route_name" value="190"/>
        <param key="gtfs.trip_headsign" value="East: Cal Poly Pomona"/>
    </vehicle>
    <vehicle id="t532-b2765-sl4" route="t14-b2784-sl4" type="bus" depart="52864" line="t14-b2784-sl4">
        <param key="gtfs.route_name" value="190"/>
        <param key="gtfs.trip_headsign" value="West: El Monte Station"/>
    </vehicle>
    <vehicle id="t546-b2782-sl4" route="t14-b27A3-sl4" type="bus" depart="49800" line="t14-b27A3-sl4">
        <param key="gtfs.route_name" value="190"/>
        <param key="gtfs.trip_headsign" value="East: Cal Poly Pomona"/>
    </vehicle>
    <vehicle id="t578-b271E-sl4" route="t14-b2784-sl4" type="bus" depart="54664" line="t14-b2784-sl4">
        <param key="gtfs.route_name" value="190"/>
        <param key="gtfs.trip_headsign" value="West: El Monte Station"/>
    </vehicle>
    <vehicle id="t587-b2787-sl4" route="t14-b2784-sl4" type="bus" depart="55564" line="t14-b2784-sl4">
        <param key="gtfs.route_name" value="190"/>
        <param key="gtfs.trip_headsign" value="West: El Monte Station"/>
    </vehicle>
    <vehicle id="t58C-b2788-sl4" route="t14-b27A3-sl4" type="bus" depart="51600" line="t14-b27A3-sl4">
        <param key="gtfs.route_name" value="190"/>
        <param key="gtfs.trip_headsign" value="East: Cal Poly Pomona"/>
    </vehicle>
    <vehicle id="t596-b2763-sl4" route="t14-b2784-sl4" type="bus" depart="56464" line="t14-b2784-sl4">
        <param key="gtfs.route_name" value="190"/>
        <param key="gtfs.trip_headsign" value="West: El Monte Station"/>
    </vehicle>
    <vehicle id="t5A0-b2780-sl4" route="t14-b27A3-sl4" type="bus" depart="52800" line="t14-b27A3-sl4">
        <param key="gtfs.route_name" value="190"/>
        <param key="gtfs.trip_headsign" value="East: Cal Poly Pomona"/>
    </vehicle>