<?xml version="1.0" encoding="UTF-8"?>

<!-- generated on 2025-04-15 15:09:46 by Eclipse SUMO netconvert Version 1.22.0
<netconvertConfiguration xmlns:xsi="http://www.w3.org/2001/XMLSchema-instance" xsi:noNamespaceSchemaLocation="http://sumo.dlr.de/xsd/netconvertConfiguration.xsd">

    <input>
        <type-files value="${SUMO_HOME}/data/typemap/osmNetconvert.typ.xml,${SUMO_HOME}/data/typemap/osmNetconvertAerialway.typ.xml"/>
        <osm-files value="osm_bbox.osm.xml.gz"/>
    </input>

    <output>
        <output-file value="osm.net.xml.gz"/>
        <output.street-names value="true"/>
        <output.original-names value="true"/>
        <ptstop-output value="osm_stops.add.xml"/>
        <ptline-output value="osm_ptlines.xml"/>
    </output>

    <projection>
        <proj.utm value="true"/>
    </projection>

    <processing>
        <geometry.remove value="true"/>
        <roundabouts.guess value="true"/>
    </processing>

    <tls_building>
        <tls.discard-simple value="true"/>
        <tls.join value="true"/>
        <tls.guess-signals value="true"/>
        <tls.default-type value="actuated"/>
    </tls_building>

    <ramp_guessing>
        <ramps.guess value="true"/>
    </ramp_guessing>

    <edge_removal>
        <keep-edges.by-vclass value="passenger,bus,tram,rail_urban,subway,cable_car,rail"/>
    </edge_removal>

    <junctions>
        <junctions.join value="true"/>
        <junctions.corner-detail value="5"/>
    </junctions>

    <railway>
        <railway.topology.repair value="true"/>
    </railway>

</netconvertConfiguration>
-->

<net version="1.20" junctionCornerDetail="5" limitTurnSpeed="5.50" xmlns:xsi="http://www.w3.org/2001/XMLSchema-instance" xsi:noNamespaceSchemaLocation="http://sumo.dlr.de/xsd/net_file.xsd">

    <location netOffset="-483044.75,-3768274.70" convBoundary="0.00,0.00,445.96,372.77" origBoundary="-117.183721,34.055042,-117.178762,34.058410" projParameter="+proj=utm +zone=11 +ellps=WGS84 +datum=WGS84 +units=m +no_defs"/>

    <type id="highway.primary" priority="12" numLanes="2" speed="27.78" disallow="tram rail_urban rail rail_electric rail_fast ship container cable_car subway aircraft wheelchair scooter drone" oneway="0"/>
    <type id="highway.residential" priority="3" numLanes="1" speed="13.89" disallow="tram rail_urban rail rail_electric rail_fast ship container cable_car subway aircraft wheelchair scooter drone" oneway="0"/>
    <type id="highway.secondary" priority="11" numLanes="1" speed="27.78" disallow="tram rail_urban rail rail_electric rail_fast ship container cable_car subway aircraft wheelchair scooter drone" oneway="0"/>
    <type id="highway.tertiary" priority="10" numLanes="1" speed="22.22" disallow="tram rail_urban rail rail_electric rail_fast ship container cable_car subway aircraft wheelchair scooter drone" oneway="0"/>

    <edge id=":12468380614_0" function="internal">
        <lane id=":12468380614_0_0" index="0" disallow="tram rail_urban rail rail_electric rail_fast ship container cable_car subway aircraft wheelchair scooter drone" speed="3.65" length="4.67" shape="106.60,372.78 105.80,373.97 104.99,374.37 104.20,373.96 103.40,372.76"/>
    </edge>
    <edge id=":12494250475_0" function="internal">
        <lane id=":12494250475_0_0" index="0" disallow="tram rail_urban rail rail_electric rail_fast ship container cable_car subway aircraft wheelchair scooter drone" speed="6.45" length="9.30" shape="417.28,154.90 414.82,155.10 413.06,156.12 411.99,157.95 411.62,160.60"/>
    </edge>
    <edge id=":12494250475_1" function="internal">
        <lane id=":12494250475_1_0" index="0" disallow="tram rail_urban rail rail_electric rail_fast ship container cable_car subway aircraft wheelchair scooter drone" speed="8.24" length="14.01" shape="417.28,154.90 413.42,154.11 410.64,152.38 408.94,149.72 408.31,146.13"/>
    </edge>
    <edge id=":12494250475_2" function="internal">
        <lane id=":12494250475_2_0" index="0" disallow="tram rail_urban rail rail_electric rail_fast ship container cable_car subway aircraft wheelchair scooter drone" speed="3.66" length="4.69" shape="417.28,154.90 416.06,154.12 415.65,153.32 416.04,152.51 417.23,151.69"/>
    </edge>
    <edge id=":12494250475_3" function="internal">
        <lane id=":12494250475_3_0" index="0" disallow="tram rail_urban rail rail_electric rail_fast ship container cable_car subway aircraft wheelchair scooter drone" speed="6.71" length="8.96" shape="411.51,146.06 411.91,148.37 413.00,150.07 414.77,151.18 417.23,151.69"/>
    </edge>
    <edge id=":12494250475_4" function="internal">
        <lane id=":12494250475_4_0" index="0" disallow="tram rail_urban rail rail_electric rail_fast ship container cable_car subway aircraft wheelchair scooter drone" speed="13.89" length="14.54" shape="411.51,146.06 411.62,160.60"/>
    </edge>
    <edge id=":12494250475_5" function="internal">
        <lane id=":12494250475_5_0" index="0" disallow="tram rail_urban rail rail_electric rail_fast ship container cable_car subway aircraft wheelchair scooter drone" speed="3.65" length="1.44" shape="411.51,146.06 410.74,147.28"/>
    </edge>
    <edge id=":12494250475_12" function="internal">
        <lane id=":12494250475_12_0" index="0" disallow="tram rail_urban rail rail_electric rail_fast ship container cable_car subway aircraft wheelchair scooter drone" speed="3.65" length="3.23" shape="410.74,147.28 409.95,147.69 409.14,147.31 408.31,146.13"/>
    </edge>
    <edge id=":12494250475_6" function="internal">
        <lane id=":12494250475_6_0" index="0" disallow="tram rail_urban rail rail_electric rail_fast ship container cable_car subway aircraft wheelchair scooter drone" speed="6.45" length="9.03" shape="402.80,151.75 405.26,151.41 407.00,150.35 408.02,148.59 408.31,146.13"/>
    </edge>
    <edge id=":12494250475_7" function="internal">
        <lane id=":12494250475_7_0" index="0" disallow="tram rail_urban rail rail_electric rail_fast ship container cable_car subway aircraft wheelchair scooter drone" speed="12.53" length="14.43" shape="402.80,151.75 417.23,151.69"/>
    </edge>
    <edge id=":12494250475_8" function="internal">
        <lane id=":12494250475_8_0" index="0" disallow="tram rail_urban rail rail_electric rail_fast ship container cable_car subway aircraft wheelchair scooter drone" speed="7.33" length="11.79" shape="402.79,154.95 406.67,155.31 409.43,156.38 411.08,158.14 411.62,160.60"/>
    </edge>
    <edge id=":12494250475_9" function="internal">
        <lane id=":12494250475_9_0" index="0" disallow="tram rail_urban rail rail_electric rail_fast ship container cable_car subway aircraft wheelchair scooter drone" speed="13.89" length="14.45" shape="408.42,160.58 408.31,146.13"/>
    </edge>
    <edge id=":12494250475_10" function="internal">
        <lane id=":12494250475_10_0" index="0" disallow="tram rail_urban rail rail_electric rail_fast ship container cable_car subway aircraft wheelchair scooter drone" speed="7.89" length="4.17" shape="408.42,160.58 409.00,156.44"/>
    </edge>
    <edge id=":12494250475_11" function="internal">
        <lane id=":12494250475_11_0" index="0" disallow="tram rail_urban rail rail_electric rail_fast ship container cable_car subway aircraft wheelchair scooter drone" speed="3.65" length="1.44" shape="408.42,160.58 409.23,159.38"/>
    </edge>
    <edge id=":12494250475_13" function="internal">
        <lane id=":12494250475_13_0" index="0" disallow="tram rail_urban rail rail_electric rail_fast ship container cable_car subway aircraft wheelchair scooter drone" speed="7.89" length="10.31" shape="409.00,156.44 410.66,153.59 413.40,152.00 417.23,151.69"/>
    </edge>
    <edge id=":12494250475_14" function="internal">
        <lane id=":12494250475_14_0" index="0" disallow="tram rail_urban rail rail_electric rail_fast ship container cable_car subway aircraft wheelchair scooter drone" speed="3.65" length="3.23" shape="409.23,159.38 410.03,158.99 410.83,159.39 411.62,160.60"/>
    </edge>
    <edge id=":12494250477_0" function="internal">
        <lane id=":12494250477_0_0" index="0" disallow="tram rail_urban rail rail_electric rail_fast ship container cable_car subway aircraft wheelchair scooter drone" speed="3.65" length="4.67" shape="418.67,151.79 419.81,152.68 420.15,153.51 419.69,154.28 418.44,154.99"/>
    </edge>
    <edge id=":12495581989_0" function="internal">
        <lane id=":12495581989_0_0" index="0" disallow="tram rail_urban rail rail_electric rail_fast ship container cable_car subway aircraft wheelchair scooter drone" speed="13.41" length="8.20" shape="237.89,256.63 235.49,256.89 233.88,257.43 232.27,257.97 229.87,258.21"/>
        <lane id=":12495581989_0_1" index="1" disallow="tram rail_urban rail rail_electric rail_fast ship container cable_car subway aircraft wheelchair scooter drone" speed="13.41" length="8.20" shape="237.89,253.43 235.49,253.69 233.89,254.23 232.29,254.77 229.89,255.01"/>
        <lane id=":12495581989_0_2" index="2" disallow="tram rail_urban rail rail_electric rail_fast ship container cable_car subway aircraft wheelchair scooter drone" speed="13.41" length="8.20" shape="237.89,253.43 235.50,253.19 233.90,252.63 232.31,252.07 229.92,251.81"/>
    </edge>
    <edge id=":3507821167_0" function="internal">
        <lane id=":3507821167_0_0" index="0" disallow="tram rail_urban rail rail_electric rail_fast ship container cable_car subway aircraft wheelchair scooter drone" speed="11.18" length="8.00" shape="109.47,291.69 109.46,299.69"/>
        <lane id=":3507821167_0_1" index="1" disallow="tram rail_urban rail rail_electric rail_fast ship container cable_car subway aircraft wheelchair scooter drone" speed="11.18" length="8.00" shape="106.27,291.69 106.26,299.68"/>
    </edge>
    <edge id=":3507821167_2" function="internal">
        <lane id=":3507821167_2_0" index="0" disallow="tram rail_urban rail rail_electric rail_fast ship container cable_car subway aircraft wheelchair scooter drone" speed="11.18" length="8.54" shape="99.86,299.68 99.36,297.21 98.26,295.67 97.17,294.13 96.67,291.67"/>
        <lane id=":3507821167_2_1" index="1" disallow="tram rail_urban rail rail_electric rail_fast ship container cable_car subway aircraft wheelchair scooter drone" speed="11.18" length="8.54" shape="103.06,299.68 102.56,297.22 101.46,295.68 100.37,294.14 99.87,291.67"/>
        <lane id=":3507821167_2_2" index="2" disallow="tram rail_urban rail rail_electric rail_fast ship container cable_car subway aircraft wheelchair scooter drone" speed="11.18" length="8.54" shape="103.06,299.68 103.07,291.68"/>
    </edge>
    <edge id=":4685462129_0" function="internal">
        <lane id=":4685462129_0_0" index="0" disallow="tram rail_urban rail rail_electric rail_fast ship container cable_car subway aircraft wheelchair scooter drone" speed="27.78" length="7.98" shape="379.00,55.81 371.01,55.89"/>
    </edge>
    <edge id=":4685462129_1" function="internal">
        <lane id=":4685462129_1_0" index="0" disallow="tram rail_urban rail rail_electric rail_fast ship container cable_car subway aircraft wheelchair scooter drone" speed="27.78" length="8.41" shape="370.97,52.70 373.43,52.16 374.96,51.04 376.49,49.93 378.95,49.41"/>
        <lane id=":4685462129_1_1" index="1" disallow="tram rail_urban rail rail_electric rail_fast ship container cable_car subway aircraft wheelchair scooter drone" speed="27.78" length="8.41" shape="370.97,52.70 378.97,52.61"/>
    </edge>
    <edge id=":4685462130_0" function="internal">
        <lane id=":4685462130_0_0" index="0" disallow="tram rail_urban rail rail_electric rail_fast ship container cable_car subway aircraft wheelchair scooter drone" speed="27.78" length="8.39" shape="351.06,56.17 348.61,56.70 347.09,57.82 345.58,58.95 343.13,59.50"/>
        <lane id=":4685462130_0_1" index="1" disallow="tram rail_urban rail rail_electric rail_fast ship container cable_car subway aircraft wheelchair scooter drone" speed="27.78" length="8.39" shape="351.06,56.17 343.07,56.30"/>
    </edge>
    <edge id=":4685462130_2" function="internal">
        <lane id=":4685462130_2_0" index="0" disallow="tram rail_urban rail rail_electric rail_fast ship container cable_car subway aircraft wheelchair scooter drone" speed="27.78" length="8.01" shape="343.00,53.10 351.01,52.97"/>
    </edge>
    <edge id=":4687606098_0" function="internal">
        <lane id=":4687606098_0_0" index="0" disallow="tram rail_urban rail rail_electric rail_fast ship container cable_car subway aircraft wheelchair scooter drone" speed="22.22" length="9.17" shape="107.37,20.84 107.77,23.60 109.52,25.27 111.42,26.98 112.24,29.86"/>
        <lane id=":4687606098_0_1" index="1" disallow="tram rail_urban rail rail_electric rail_fast ship container cable_car subway aircraft wheelchair scooter drone" speed="22.22" length="9.17" shape="107.37,20.84 107.32,23.34 107.98,25.03 108.75,26.74 109.08,29.28"/>
        <lane id=":4687606098_0_2" index="2" disallow="tram rail_urban rail rail_electric rail_fast ship container cable_car subway aircraft wheelchair scooter drone" speed="22.22" length="9.17" shape="107.37,20.84 105.93,28.70"/>
    </edge>
    <edge id=":4687606098_3" function="internal">
        <lane id=":4687606098_3_0" index="0" disallow="tram rail_urban rail rail_electric rail_fast ship container cable_car subway aircraft wheelchair scooter drone" speed="22.22" length="8.81" shape="99.63,27.55 100.57,25.22 101.93,23.90 103.29,22.59 104.22,20.26"/>
    </edge>
    <edge id=":4687606099_0" function="internal">
        <lane id=":4687606099_0_0" index="0" disallow="tram rail_urban rail rail_electric rail_fast ship container cable_car subway aircraft wheelchair scooter drone" speed="27.78" length="8.19" shape="58.50,52.88 60.90,52.64 62.52,52.10 64.13,51.58 66.54,51.38"/>
        <lane id=":4687606099_0_1" index="1" disallow="tram rail_urban rail rail_electric rail_fast ship container cable_car subway aircraft wheelchair scooter drone" speed="27.78" length="8.19" shape="58.48,56.08 60.87,55.84 62.48,55.30 64.08,54.78 66.47,54.58"/>
        <lane id=":4687606099_0_2" index="2" disallow="tram rail_urban rail rail_electric rail_fast ship container cable_car subway aircraft wheelchair scooter drone" speed="27.78" length="8.19" shape="58.48,56.08 60.86,56.34 62.44,56.90 64.03,57.48 66.40,57.78"/>
    </edge>
    <edge id=":4687606101_0" function="internal">
        <lane id=":4687606101_0_0" index="0" disallow="tram rail_urban rail rail_electric rail_fast ship container cable_car subway aircraft wheelchair scooter drone" speed="27.78" length="8.21" shape="35.26,66.07 32.86,66.34 31.26,66.91 29.65,67.46 27.26,67.73"/>
        <lane id=":4687606101_0_1" index="1" disallow="tram rail_urban rail rail_electric rail_fast ship container cable_car subway aircraft wheelchair scooter drone" speed="27.78" length="8.21" shape="35.22,62.87 32.83,63.14 31.23,63.71 29.64,64.26 27.24,64.53"/>
        <lane id=":4687606101_0_2" index="2" disallow="tram rail_urban rail rail_electric rail_fast ship container cable_car subway aircraft wheelchair scooter drone" speed="27.78" length="8.21" shape="35.22,62.87 32.83,62.64 31.23,62.11 29.62,61.56 27.23,61.33"/>
    </edge>
    <edge id=":4687606108_0" function="internal">
        <lane id=":4687606108_0_0" index="0" disallow="tram rail_urban rail rail_electric rail_fast ship container cable_car subway aircraft wheelchair scooter drone" speed="13.89" length="12.59" shape="-1.46,59.79 -1.58,47.21"/>
    </edge>
    <edge id=":4687606108_1" function="internal">
        <lane id=":4687606108_1_0" index="0" disallow="tram rail_urban rail rail_electric rail_fast ship container cable_car subway aircraft wheelchair scooter drone" speed="6.93" length="1.81" shape="-1.46,59.79 -0.93,58.06"/>
    </edge>
    <edge id=":4687606108_2" function="internal">
        <lane id=":4687606108_2_0" index="0" disallow="tram rail_urban rail rail_electric rail_fast ship container cable_car subway aircraft wheelchair scooter drone" speed="3.65" length="1.44" shape="-1.46,59.79 -0.67,58.59"/>
    </edge>
    <edge id=":4687606108_6" function="internal">
        <lane id=":4687606108_6_0" index="0" disallow="tram rail_urban rail rail_electric rail_fast ship container cable_car subway aircraft wheelchair scooter drone" speed="6.93" length="8.69" shape="-0.93,58.06 0.70,56.83 3.43,56.10 7.25,55.87"/>
    </edge>
    <edge id=":4687606108_7" function="internal">
        <lane id=":4687606108_7_0" index="0" disallow="tram rail_urban rail rail_electric rail_fast ship container cable_car subway aircraft wheelchair scooter drone" speed="3.65" length="3.23" shape="-0.67,58.59 0.13,58.18 0.93,58.57 1.74,59.77"/>
    </edge>
    <edge id=":4687606108_3" function="internal">
        <lane id=":4687606108_3_0" index="0" disallow="tram rail_urban rail rail_electric rail_fast ship container cable_car subway aircraft wheelchair scooter drone" speed="6.48" length="9.02" shape="1.62,47.16 1.94,49.56 2.99,51.28 4.76,52.32 7.26,52.67"/>
    </edge>
    <edge id=":4687606108_4" function="internal">
        <lane id=":4687606108_4_0" index="0" disallow="tram rail_urban rail rail_electric rail_fast ship container cable_car subway aircraft wheelchair scooter drone" speed="13.89" length="12.61" shape="1.62,47.16 1.74,59.77"/>
    </edge>
    <edge id=":4687606108_5" function="internal">
        <lane id=":4687606108_5_0" index="0" disallow="tram rail_urban rail rail_electric rail_fast ship container cable_car subway aircraft wheelchair scooter drone" speed="3.65" length="1.44" shape="1.62,47.16 0.84,48.37"/>
    </edge>
    <edge id=":4687606108_8" function="internal">
        <lane id=":4687606108_8_0" index="0" disallow="tram rail_urban rail rail_electric rail_fast ship container cable_car subway aircraft wheelchair scooter drone" speed="3.65" length="3.23" shape="0.84,48.37 0.04,48.78 -0.76,48.40 -1.58,47.21"/>
    </edge>
    <edge id=":4687606112_0" function="internal">
        <lane id=":4687606112_0_0" index="0" disallow="tram rail_urban rail rail_electric rail_fast ship container cable_car subway aircraft wheelchair scooter drone" speed="27.78" length="8.41" shape="135.66,58.76 133.20,59.29 131.67,60.41 130.14,61.52 127.68,62.04"/>
        <lane id=":4687606112_0_1" index="1" disallow="tram rail_urban rail rail_electric rail_fast ship container cable_car subway aircraft wheelchair scooter drone" speed="27.78" length="8.41" shape="135.66,58.76 127.66,58.84"/>
    </edge>
    <edge id=":4687606112_2" function="internal">
        <lane id=":4687606112_2_0" index="0" disallow="tram rail_urban rail rail_electric rail_fast ship container cable_car subway aircraft wheelchair scooter drone" speed="27.78" length="7.98" shape="127.64,55.64 135.62,55.56"/>
    </edge>
    <edge id=":4687606113_0" function="internal">
        <lane id=":4687606113_0_0" index="0" disallow="tram rail_urban rail rail_electric rail_fast ship container cable_car subway aircraft wheelchair scooter drone" speed="27.78" length="7.98" shape="271.25,56.72 263.28,56.77"/>
    </edge>
    <edge id=":4687606113_1" function="internal">
        <lane id=":4687606113_1_0" index="0" disallow="tram rail_urban rail rail_electric rail_fast ship container cable_car subway aircraft wheelchair scooter drone" speed="27.78" length="8.41" shape="263.24,53.57 265.71,53.04 267.24,51.93 268.78,50.83 271.24,50.32"/>
        <lane id=":4687606113_1_1" index="1" disallow="tram rail_urban rail rail_electric rail_fast ship container cable_car subway aircraft wheelchair scooter drone" speed="27.78" length="8.41" shape="263.24,53.57 271.25,53.52"/>
    </edge>
    <edge id=":4687606114_0" function="internal">
        <lane id=":4687606114_0_0" index="0" disallow="tram rail_urban rail rail_electric rail_fast ship container cable_car subway aircraft wheelchair scooter drone" speed="27.78" length="8.40" shape="252.76,56.88 250.30,57.41 248.77,58.53 247.25,59.64 244.79,60.17"/>
        <lane id=":4687606114_0_1" index="1" disallow="tram rail_urban rail rail_electric rail_fast ship container cable_car subway aircraft wheelchair scooter drone" speed="27.78" length="8.40" shape="252.76,56.88 244.76,56.97"/>
    </edge>
    <edge id=":4687606114_2" function="internal">
        <lane id=":4687606114_2_0" index="0" disallow="tram rail_urban rail rail_electric rail_fast ship container cable_car subway aircraft wheelchair scooter drone" speed="27.78" length="8.00" shape="244.72,53.77 252.72,53.68"/>
    </edge>
    <edge id=":54487384_0" function="internal">
        <lane id=":54487384_0_0" index="0" disallow="tram rail_urban rail rail_electric rail_fast ship container cable_car subway aircraft wheelchair scooter drone" speed="6.03" length="9.06" shape="98.56,69.91 98.18,67.35 97.07,65.75 95.24,65.08 92.68,65.37"/>
    </edge>
    <edge id=":54487384_1" function="internal">
        <lane id=":54487384_1_0" index="0" disallow="tram rail_urban rail rail_electric rail_fast ship container cable_car subway aircraft wheelchair scooter drone" speed="16.70" length="24.24" shape="98.56,69.91 99.00,45.59"/>
        <lane id=":54487384_1_1" index="1" disallow="tram rail_urban rail rail_electric rail_fast ship container cable_car subway aircraft wheelchair scooter drone" speed="16.70" length="24.24" shape="101.76,69.89 102.20,45.73"/>
    </edge>
    <edge id=":54487384_3" function="internal">
        <lane id=":54487384_3_0" index="0" disallow="tram rail_urban rail rail_electric rail_fast ship container cable_car subway aircraft wheelchair scooter drone" speed="10.23" length="6.59" shape="101.76,69.89 102.69,63.72 102.89,63.42"/>
    </edge>
    <edge id=":54487384_4" function="internal">
        <lane id=":54487384_4_0" index="0" disallow="tram rail_urban rail rail_electric rail_fast ship container cable_car subway aircraft wheelchair scooter drone" speed="3.65" length="1.44" shape="101.76,69.89 102.56,68.69"/>
    </edge>
    <edge id=":54487384_16" function="internal">
        <lane id=":54487384_16_0" index="0" disallow="tram rail_urban rail rail_electric rail_fast ship container cable_car subway aircraft wheelchair scooter drone" speed="10.23" length="17.24" shape="102.89,63.42 105.56,59.30 110.38,56.63 117.13,55.71"/>
    </edge>
    <edge id=":54487384_17" function="internal">
        <lane id=":54487384_17_0" index="0" disallow="tram rail_urban rail rail_electric rail_fast ship container cable_car subway aircraft wheelchair scooter drone" speed="3.65" length="3.23" shape="102.56,68.69 103.35,68.28 104.16,68.68 104.96,69.87"/>
    </edge>
    <edge id=":54487384_5" function="internal">
        <lane id=":54487384_5_0" index="0" disallow="tram rail_urban rail rail_electric rail_fast ship container cable_car subway aircraft wheelchair scooter drone" speed="7.88" length="13.71" shape="117.40,62.10 113.34,62.61 110.45,64.07 108.72,66.49 108.16,69.86"/>
    </edge>
    <edge id=":54487384_6" function="internal">
        <lane id=":54487384_6_0" index="0" disallow="tram rail_urban rail rail_electric rail_fast ship container cable_car subway aircraft wheelchair scooter drone" speed="27.78" length="25.34" shape="117.40,62.10 110.68,62.29 104.92,62.82 99.22,63.81 92.68,65.37"/>
        <lane id=":54487384_6_1" index="1" disallow="tram rail_urban rail rail_electric rail_fast ship container cable_car subway aircraft wheelchair scooter drone" speed="27.78" length="25.34" shape="117.26,58.91 110.44,59.10 104.46,59.67 98.55,60.69 91.91,62.27"/>
    </edge>
    <edge id=":54487384_8" function="internal">
        <lane id=":54487384_8_0" index="0" disallow="tram rail_urban rail rail_electric rail_fast ship container cable_car subway aircraft wheelchair scooter drone" speed="9.92" length="6.78" shape="117.26,58.91 110.53,58.12"/>
    </edge>
    <edge id=":54487384_18" function="internal">
        <lane id=":54487384_18_0" index="0" disallow="tram rail_urban rail rail_electric rail_fast ship container cable_car subway aircraft wheelchair scooter drone" speed="9.92" length="16.19" shape="110.53,58.12 105.78,55.66 103.00,51.53 102.20,45.73"/>
    </edge>
    <edge id=":54487384_9" function="internal">
        <lane id=":54487384_9_0" index="0" disallow="tram rail_urban rail rail_electric rail_fast ship container cable_car subway aircraft wheelchair scooter drone" speed="7.40" length="12.32" shape="111.79,46.15 112.02,50.35 112.99,53.34 114.69,55.12 117.13,55.71"/>
    </edge>
    <edge id=":54487384_10" function="internal">
        <lane id=":54487384_10_0" index="0" disallow="tram rail_urban rail rail_electric rail_fast ship container cable_car subway aircraft wheelchair scooter drone" speed="16.70" length="24.12" shape="111.79,46.15 111.07,53.51 109.83,58.75 108.66,63.62 108.16,69.86"/>
        <lane id=":54487384_10_1" index="1" disallow="tram rail_urban rail rail_electric rail_fast ship container cable_car subway aircraft wheelchair scooter drone" speed="16.70" length="24.12" shape="108.59,46.01 107.87,53.42 106.63,58.72 105.46,63.62 104.96,69.87"/>
    </edge>
    <edge id=":54487384_12" function="internal">
        <lane id=":54487384_12_0" index="0" disallow="tram rail_urban rail rail_electric rail_fast ship container cable_car subway aircraft wheelchair scooter drone" speed="11.29" length="4.85" shape="105.39,45.87 104.60,50.65"/>
    </edge>
    <edge id=":54487384_19" function="internal">
        <lane id=":54487384_19_0" index="0" disallow="tram rail_urban rail rail_electric rail_fast ship container cable_car subway aircraft wheelchair scooter drone" speed="11.29" length="18.13" shape="104.60,50.65 104.41,51.76 101.84,56.46 97.67,59.96 91.91,62.27"/>
    </edge>
    <edge id=":54487384_13" function="internal">
        <lane id=":54487384_13_0" index="0" disallow="tram rail_urban rail rail_electric rail_fast ship container cable_car subway aircraft wheelchair scooter drone" speed="7.70" length="13.01" shape="89.31,51.87 93.48,51.55 96.49,50.40 98.32,48.41 99.00,45.59"/>
    </edge>
    <edge id=":54487384_14" function="internal">
        <lane id=":54487384_14_0" index="0" disallow="tram rail_urban rail rail_electric rail_fast ship container cable_car subway aircraft wheelchair scooter drone" speed="27.78" length="27.02" shape="90.12,55.09 117.13,55.71"/>
    </edge>
    <edge id=":54487384_15" function="internal">
        <lane id=":54487384_15_0" index="0" disallow="tram rail_urban rail rail_electric rail_fast ship container cable_car subway aircraft wheelchair scooter drone" speed="9.62" length="4.55" shape="90.92,58.31 95.43,58.92"/>
    </edge>
    <edge id=":54487384_20" function="internal">
        <lane id=":54487384_20_0" index="0" disallow="tram rail_urban rail rail_electric rail_fast ship container cable_car subway aircraft wheelchair scooter drone" speed="9.62" length="16.01" shape="95.43,58.92 97.04,59.14 101.42,61.35 104.06,64.93 104.96,69.87"/>
    </edge>
    <edge id=":54487386_0" function="internal">
        <lane id=":54487386_0_0" index="0" disallow="tram rail_urban rail rail_electric rail_fast ship container cable_car subway aircraft wheelchair scooter drone" speed="11.18" length="14.56" shape="98.78,163.50 98.61,148.92"/>
        <lane id=":54487386_0_1" index="1" disallow="tram rail_urban rail rail_electric rail_fast ship container cable_car subway aircraft wheelchair scooter drone" speed="11.18" length="14.56" shape="101.98,163.44 101.81,148.91"/>
    </edge>
    <edge id=":54487386_2" function="internal">
        <lane id=":54487386_2_0" index="0" disallow="tram rail_urban rail rail_electric rail_fast ship container cable_car subway aircraft wheelchair scooter drone" speed="8.10" length="2.41" shape="101.98,163.44 102.64,161.11"/>
    </edge>
    <edge id=":54487386_3" function="internal">
        <lane id=":54487386_3_0" index="0" disallow="tram rail_urban rail rail_electric rail_fast ship container cable_car subway aircraft wheelchair scooter drone" speed="3.65" length="1.44" shape="101.98,163.44 102.76,162.22"/>
    </edge>
    <edge id=":54487386_8" function="internal">
        <lane id=":54487386_8_0" index="0" disallow="tram rail_urban rail rail_electric rail_fast ship container cable_car subway aircraft wheelchair scooter drone" speed="8.10" length="12.23" shape="102.64,161.11 102.68,160.94 104.91,159.14 108.65,158.02 113.91,157.60"/>
    </edge>
    <edge id=":54487386_9" function="internal">
        <lane id=":54487386_9_0" index="0" disallow="tram rail_urban rail rail_electric rail_fast ship container cable_car subway aircraft wheelchair scooter drone" speed="3.65" length="3.23" shape="102.76,162.22 103.55,161.80 104.36,162.19 105.18,163.37"/>
    </edge>
    <edge id=":54487386_4" function="internal">
        <lane id=":54487386_4_0" index="0" disallow="tram rail_urban rail rail_electric rail_fast ship container cable_car subway aircraft wheelchair scooter drone" speed="6.48" length="9.02" shape="108.21,148.88 108.57,151.32 109.63,153.06 111.39,154.08 113.85,154.40"/>
    </edge>
    <edge id=":54487386_5" function="internal">
        <lane id=":54487386_5_0" index="0" disallow="tram rail_urban rail rail_electric rail_fast ship container cable_car subway aircraft wheelchair scooter drone" speed="11.18" length="14.45" shape="108.21,148.88 108.38,163.31"/>
        <lane id=":54487386_5_1" index="1" disallow="tram rail_urban rail rail_electric rail_fast ship container cable_car subway aircraft wheelchair scooter drone" speed="11.18" length="14.45" shape="105.01,148.89 105.18,163.37"/>
    </edge>
    <edge id=":54487386_7" function="internal">
        <lane id=":54487386_7_0" index="0" disallow="tram rail_urban rail rail_electric rail_fast ship container cable_car subway aircraft wheelchair scooter drone" speed="3.65" length="1.44" shape="105.01,148.89 104.21,150.10"/>
    </edge>
    <edge id=":54487386_10" function="internal">