<?xml version="1.0" encoding="UTF-8"?>

<!-- generated on 2025-04-15 15:09:46 by Eclipse SUMO netconvert Version 1.22.0
<netconvertConfiguration xmlns:xsi="http://www.w3.org/2001/XMLSchema-instance" xsi:noNamespaceSchemaLocation="http://sumo.dlr.de/xsd/netconvertConfiguration.xsd">

    <input>
        <type-files value="${SUMO_HOME}/data/typemap/osmNetconvert.typ.xml,${SUMO_HOME}/data/typemap/osmNetconvertAerialway.typ.xml"/>
        <osm-files value="osm_bbox.osm.xml.gz"/>
    </input>

    <output>
        <output-file value="osm.net.xml.gz"/>
        <output.street-names value="true"/>
        <output.original-names value="true"/>
        <ptstop-output value="osm_stops.add.xml"/>
        <ptline-output value="osm_ptlines.xml"/>
    </output>

    <projection>
        <proj.utm value="true"/>
    </projection>

    <processing>
        <geometry.remove value="true"/>
        <roundabouts.guess value="true"/>
    </processing>

    <tls_building>
        <tls.discard-simple value="true"/>
        <tls.join value="true"/>
        <tls.guess-signals value="true"/>
        <tls.default-type value="actuated"/>
    </tls_building>

    <ramp_guessing>
        <ramps.guess value="true"/>
    </ramp_guessing>

    <edge_removal>
        <keep-edges.by-vclass value="passenger,bus,tram,rail_urban,subway,cable_car,rail"/>
    </edge_removal>

    <junctions>
        <junctions.join value="true"/>
        <junctions.corner-detail value="5"/>
    </junctions>

    <railway>
        <railway.topology.repair value="true"/>
    </railway>

</netconvertConfiguration>
-->

<additional xmlns:xsi="http://www.w3.org/2001/XMLSchema-instance" xsi:noNamespaceSchemaLocation="http://sumo.dlr.de/xsd/additional_file.xsd">
    <busStop id="11091069549" name="Redlands @ 6th Eastbound" lane="34316683#0_0" startPos="10.65" endPos="25.65" friendlyPos="true"/>
    <busStop id="12217290017" name="Redlands @ 7th Westbound" lane="654626175#0_0" startPos="0.00" endPos="2.26" friendlyPos="true"/>
    <busStop id="8336507932" name="Redlands Mall Eastbound;Redlands Transit Center (Eastbound)" lane="1371024191#0_0" startPos="0.00" endPos="15.00" friendlyPos="true"/>
    <busStop id="9991778010" name="Redlands Mall Westbound;Redlands Transit Center (Westbound)" lane="654626177#0_0" startPos="59.30" endPos="74.30" friendlyPos="true"/>
</additional>
