<?xml version='1.0' encoding='utf-8'?>
<routes xmlns:xsi="http://www.w3.org/2001/XMLSchema-instance"
        xsi:noNamespaceSchemaLocation="http://sumo.dlr.de/xsd/routes_file.xsd">

    <vType id="bus" vClass="bus" accel="1.0" decel="4.5" length="12" minGap="3.0" maxSpeed="25"/>
    <route id="t1A9-b1601D-sl4" edges="405337823 405337862#0 405337862#1 405337862#2 405337862#3 405337855 405337866#0 405337866#1 405337866#2 405337866#3 405337866#4 405337859#0 405337859#1 405336655#1 405336655#2 405336652#0 405336652#1 405336661#0 405336661#1 405336661#3 405336661#4 405336661#5 405336661#6 1221691599 405336642 405336657#0 405336657#1 405336657#2 405336657#3 405336657#4 405336639#0 405336639#1 405336664#0 405336664#3 405336664#4 405336644 405336660 1036527249#0 1036527249#1 25003116 405337880#1 405337880#2 405337880#3 405337880#4 405337867#0 405337877#0 405337877#1 405337878#0 405337873#0 405337873#1 680311701 405337868 405493036#0 405493036#1 1036530139 405493012 405493043#0 405493043#1 405493043#2 405493004 1094481473 405493034 405493030#0 405493048#0 405493048#1 405493025 405493041 405493017#0 182050922#0 401279512 1083115312 401279511 401279534#0 946725601#0 401279521#0 401279531#0 -1365257229#1 -1365257229#0 -739030982 -41734286 -401279523#1 -401279523#0 39497566 1365889296 448565809 448565810 39497550">
        <stop busStop="t1A9-b1601D-sl4.0" duration="10" until="0" /> 
        <stop busStop="t1A9-b1601D-sl4.3" duration="10" until="130" /> 
        <stop busStop="t1A9-b1601D-sl4.4" duration="10" until="193" /> 
        <stop busStop="t1A9-b1601D-sl4.5" duration="10" until="254" /> 
        <stop busStop="t1A9-b1601D-sl4.6" duration="10" until="344" /> 
        <stop busStop="t1A9-b1601D-sl4.7" duration="10" until="394" /> 
        <stop busStop="t1A9-b1601D-sl4.8" duration="10" until="473" /> 
        <stop busStop="t1A9-b1601D-sl4.9" duration="10" until="556" /> 
        <stop busStop="t1A9-b1601D-sl4.10" duration="10" until="677" /> 
    </route>
    <route id="t212-b15F99-sl4" edges="39497550 604115940 448565811#0 580342766#1 -448565809 -1365889296 -39497566 401279523#0 401279523#1 41734286 739030982 1365257229#0 1365257229#1 401279526#0 401279510 401279509 401279514 946725603#0 401279529#0 401279513 25003117#0 25003117#1 405493022#0 405493039 1036711156 405493009 405493046 405493027#0 415101867 405493001#0 405493001#1 405493001#2 1094481475#0 1094481475#1 1094481475#2 1094481475#3 405493014 405493032#0 405493032#1 405493032#2 405493019 405493007 1036530140#0 1036530140#1 1036530140#2 405337869 405337870#0 405337870#1 405337870#2 405337876#0 405337876#1 405337879 405337871#0 405337874 405337875#0 405337875#1 405337875#2 -25003116 405336663#1 405336663#2 405336663#3 1036527248 405336640#0 405336640#1 405336662#0 405336654#0 405336651 405336659#1 405336659#2 405336659#3 405336648 405336647#0 405336647#1 405336641 405336658#0 405336658#1 405336658#2 405336658#3 405336658#4 405336650 405336656#0 405337852#0 405337852#1 405337842 405337863#0 405337863#1 405337863#2 405337847 405337865#0 405337865#1 405337865#2 405337826"> 
        <stop busStop="t212-b15F99-sl4.1" duration="10" until="160" /> 
        <stop busStop="t212-b15F99-sl4.2" duration="10" until="299" /> 
        <stop busStop="t212-b15F99-sl4.3" duration="10" until="372" /> 
        <stop busStop="t212-b15F99-sl4.4" duration="10" until="459" /> 
        <stop busStop="t212-b15F99-sl4.5" duration="10" until="511" /> 
        <stop busStop="t212-b15F99-sl4.6" duration="10" until="599" /> 
        <stop busStop="t212-b15F99-sl4.7" duration="10" until="658" /> 
        <stop busStop="t212-b15F99-sl4.8" duration="10" until="713" /> 
        <stop busStop="t212-b15F99-sl4.9" duration="10" until="780" /> 
        
    </route>
    <vehicle id="t1A9-b1601D-sl4.0" route="t1A9-b1601D-sl4" type="bus" depart="0" line="t1A9-b1601D-sl4">
        <param key="gtfs.route_name" value="492" />
        <param key="gtfs.trip_headsign" value="West: El Monte Station" />
    </vehicle>
    <vehicle id="t212-b15F99-sl4.0" route="t212-b15F99-sl4" type="bus" depart="0" line="t212-b15F99-sl4">
        <param key="gtfs.route_name" value="492" />
        <param key="gtfs.trip_headsign" value="East: Montclair Transit Center" />
    </vehicle>
    </routes>