<?xml version="1.0" encoding="UTF-8"?>

<!-- generated on 2025-06-23 00:12:55.218136 by gtfs2pt.py d70dd9ec0
<configuration>
    <gtfs value="foothill_transit_gtfs.zip"/>
    <date value="20250624"/>
    <network value="osm.net.xml.gz"/>
    <route-output value="gtfs_output/routes.rou.xml"/>
    <additional-output value="gtfs_output/stops_additional.xml"/>
</configuration>
-->

<routes xmlns:xsi="http://www.w3.org/2001/XMLSchema-instance" xsi:noNamespaceSchemaLocation="http://sumo.dlr.de/xsd/routes_file.xsd">
    <route id="t1C7-b27B4-sl4" edges="-648979703#1 -648979716#1 -648979728 -724306874#1 -724306874#0 -399541855 -399542189 -404952602#7 -404952602#6 -404952602#4 -404952602#3 -404952602#2 -404952602#1 -404952602#0 -404952594 13433114#0 13433114#1 13433114#2 13433114#3 608419124 404952608#0 976576365#0 976576365#2 976576365#3 -13330404#1 -13330404#0 -405492994 -405492978#1 -405492978#0 -405492967 -1002506672 -405492989 -405492983 -401280480#2 -401280480#1 -401280480#0 -719920980 -719920981 -401280479#2 -401280479#0 -401280481 -401280482 -844266946 -401280471 -401280476 -401280473 -401280472 -401280477#2 -401280477#1 -401280477#0 39497566 1365889296 448565809 448565810 39497550 604115940 604115937 608749309#1">
        <stop busStop="t1C7-b27B4-sl4.0" duration="10" until="0"/> <!-- Valley Blvd &amp; Peck Rd -->
        <stop busStop="t1C7-b27B4-sl4.1" duration="10" until="49"/> <!-- Valley Blvd and Johnson Ave W -->
        <stop busStop="t1C7-b27B4-sl4.2" duration="10" until="119"/> <!-- Ramona Blvd and Main St W -->
        <stop busStop="t1C7-b27B4-sl4.3" duration="10" until="160"/> <!-- Ramona Blvd and Tyler Ave W -->
        <stop busStop="t1C7-b27B4-sl4.4" duration="10" until="214"/> <!-- Ramona Blvd and Lexington Ave W -->
        <stop busStop="t1C7-b27B4-sl4.5" duration="10" until="390"/> <!-- El Monte Station Lower Level -->
    </route>
    <route id="t1F4-b2714-sl4" edges="608749309#1 -604115944 -39497560#2 -39497560#1 -39497560#0 401279508 401279518 401280477#0 401280477#1 401280477#2 401280472 401280473 401280476 401280471 844266946 401280482 401280481 401280479#0 401280479#2 719920981 719920980 401280480#0 401280480#1 401280480#2 405492972 405492989 1002506672 405492967 405492978#0 405492978#1 405492994 13330404#0 13330404#1 976576366#0 976576366#1 976576367#0 889471572#0 889471573 -13433114#3 -13433114#2 -13433114#1 -13433114#0 -1318042076 404952602#0 404952602#1 404952602#2 404952602#3 404952602#4 404952602#6 404952602#7 399542189 399541855 724306874#0 724306874#1 648979728 648979716#1">
        <stop busStop="t1C7-b27B4-sl4.5" duration="10" until="0"/> <!-- El Monte Station Lower Level -->
        <stop busStop="t1F4-b2714-sl4.1" duration="10" until="144"/> <!-- Ramona Blvd and Lexington Ave E -->
        <stop busStop="t1F4-b2714-sl4.2" duration="10" until="214"/> <!-- Ramona Blvd and Tyler Ave E -->
        <stop busStop="t1F4-b2714-sl4.3" duration="10" until="281"/> <!-- Valley Blvd and Ramona Blvd E -->
        <stop busStop="t1F4-b2714-sl4.4" duration="10" until="332"/> <!-- Valley Blvd and Johnson Ave E -->
        <stop busStop="t1F4-b2714-sl4.5" duration="10" until="387"/> <!-- Valley Blvd and Peck Rd E -->
    </route>
    <route id="t14-b2784-sl4" edges="-405497700 -844176767 -45481513 -405497708 1026947678 1026947679#0 976576365#0 976576365#2 976576365#3 -13330404#1 -13330404#0 -405492994 -405492978#1 -405492978#0 -405492967 -1002506672 -405492989 -405492983 -401280480#2 -401280480#1 -401280480#0 -719920980 -719920981 -401280479#2 -401280479#0 -401280481 -401280482 -844266946 -401280471 -401280476 -401280473 -401280472 -401280477#2 -401280477#1 -401280477#0 39497566 1365889296 448565809 448565810 39497550 604115940 604115937 608749309#1">
        <stop busStop="t14-b2784-sl4.0" duration="10" until="0"/> <!-- Ramona Blvd and Orchard St -->
        <stop busStop="t1C7-b27B4-sl4.2" duration="10" until="81"/> <!-- Ramona Blvd and Main St W -->
        <stop busStop="t1C7-b27B4-sl4.3" duration="10" until="111"/> <!-- Ramona Blvd and Tyler Ave W -->
        <stop busStop="t1C7-b27B4-sl4.4" duration="10" until="150"/> <!-- Ramona Blvd and Lexington Ave W -->
        <stop busStop="t1C7-b27B4-sl4.5" duration="10" until="278"/> <!-- El Monte Station Lower Level -->
    </route>
    <route id="t14-b27A3-sl4" edges="608749309#1 -604115944 -39497560#2 -39497560#1 -39497560#0 401279508 401279518 401280477#0 401280477#1 401280477#2 401280472 401280473 401280476 401280471 844266946 401280482 401280481 401280479#0 401280479#2 719920981 719920980 401280480#0 401280480#1 401280480#2 405492972 405492989 1002506672 405492967 405492978#0 405492978#1 405492994 13330404#0 13330404#1 976576366#0 976576366#1 976576367#0 405497704#0 687300872 405497708 45481513 844176767 405497700">
        <stop busStop="t1C7-b27B4-sl4.5" duration="10" until="0"/> <!-- El Monte Station Lower Level -->
        <stop busStop="t1F4-b2714-sl4.1" duration="10" until="117"/> <!-- Ramona Blvd and Lexington Ave E -->
        <stop busStop="t1F4-b2714-sl4.2" duration="10" until="174"/> <!-- Ramona Blvd and Tyler Ave E -->
        <stop busStop="t14-b27A3-sl4.3" duration="10" until="230"/> <!-- Ramona Blvd and Valley Blvd E -->
        <stop busStop="t14-b27A3-sl4.4" duration="10" until="314"/> <!-- Ramona Blvd and Lee Ln -->
    </route>
    <route id="t14-b27A4-sl4" edges="608749309#1 -604115944 -39497560#2 -39497560#1 -39497560#0 401279508 401279518 401280477#0 401280477#1 401280477#2 401280472 401280473 401280476 401280471 844266946 401280482 401280481 401280479#0 401280479#2 719920981 719920980 401280480#0 401280480#1 401280480#2 405492972 405492989 1002506672 405492967 405492978#0 405492978#1 405492994 13330404#0 13330404#1 976576366#0 976576366#1 976576367#0 889471572#0 889471573 -13433114#3 -13433114#2 -13433114#1 -13433114#0 -1318042076 404952602#0 404952602#1 404952602#2 404952602#3 404952602#4 404952602#6 404952602#7 399542189 399541855 724306874#0 724306874#1 648979728 648979716#1">
        <stop busStop="t1C7-b27B4-sl4.5" duration="10" until="0"/> <!-- El Monte Station Lower Level -->
        <stop busStop="t1F4-b2714-sl4.1" duration="10" until="126"/> <!-- Ramona Blvd and Lexington Ave E -->
        <stop busStop="t1F4-b2714-sl4.2" duration="10" until="188"/> <!-- Ramona Blvd and Tyler Ave E -->
        <stop busStop="t1F4-b2714-sl4.3" duration="10" until="247"/> <!-- Valley Blvd and Ramona Blvd E -->
        <stop busStop="t1F4-b2714-sl4.4" duration="10" until="292"/> <!-- Valley Blvd and Johnson Ave E -->
        <stop busStop="t1F4-b2714-sl4.5" duration="10" until="341"/> <!-- Valley Blvd and Peck Rd E -->
    </route>
    <route id="t15-b2812-sl4" edges="-648979703#1 -648979716#1 -648979728 -724306874#1 -724306874#0 -399541855 -399542189 -404952602#7 -404952602#6 -404952602#4 -404952602#3 -404952602#2 -404952602#1 -404952602#0 -404952594 13433114#0 13433114#1 13433114#2 13433114#3 608419124 404952608#0 976576365#0 976576365#2 976576365#3 -13330404#1 -13330404#0 -405492994 -405492978#1 -405492978#0 -405492967 -1002506672 -405492989 -405492983 -401280480#2 -401280480#1 -401280480#0 -719920980 -719920981 -401280479#2 -401280479#0 -401280481 -401280482 -844266946 -401280471 -401280476 -401280473 -401280472 -401280477#2 -401280477#1 -401280477#0 39497566 1365889296 448565809 448565810 39497550 604115940 604115937 608749309#1">
        <stop busStop="t1C7-b27B4-sl4.0" duration="10" until="0"/> <!-- Valley Blvd &amp; Peck Rd -->
        <stop busStop="t1C7-b27B4-sl4.1" duration="10" until="47"/> <!-- Valley Blvd and Johnson Ave W -->
        <stop busStop="t1C7-b27B4-sl4.2" duration="10" until="113"/> <!-- Ramona Blvd and Main St W -->
        <stop busStop="t1C7-b27B4-sl4.3" duration="10" until="152"/> <!-- Ramona Blvd and Tyler Ave W -->
        <stop busStop="t1C7-b27B4-sl4.4" duration="10" until="203"/> <!-- Ramona Blvd and Lexington Ave W -->
        <stop busStop="t1C7-b27B4-sl4.5" duration="10" until="369"/> <!-- El Monte Station Lower Level -->
    </route>
    <route id="t258-b2795-sl4" edges="-399550744#2 -399550744#1 -399550744#0 -400823777#3 -400823777#2 -400823777#0 -72157799#1 -72157799#0 -28312221 400823782 400823791#0 400823791#1 1043712199 1043712198 400823780 770601483#1 39497560#0 39497560#1 39497560#2 39497561 608749309#0 608749309#1">
        <stop busStop="t258-b2795-sl4.0" duration="10" until="0"/> <!-- Santa Anita Ave and Mildred St W -->
        <stop busStop="t1C7-b27B4-sl4.5" duration="10" until="462"/> <!-- El Monte Station Lower Level -->
    </route>
    <route id="t25D-b277B-sl4" edges="608749309#1 -604115944 -39497560#2 -39497560#1 -39497560#0 -770601483#1 -400823780 -1043712198 -1043712199 -400823791#1 -400823791#0 -400823782 28312221 72157799#0 72157799#1 400823777#0">
        <stop busStop="t1C7-b27B4-sl4.5" duration="10" until="0"/> <!-- El Monte Station Lower Level -->
        <stop busStop="t25D-b277B-sl4.1" duration="10" until="199"/> <!-- Santa Anita Ave and Asher St E -->
    </route>
    <route id="t1BD-b27B3-sl4" edges="405497659#1 405497651 405497681 1022491856 1022491855#1 1022491854#0 1022491854#1 -648979703#1 -648979716#1 -648979728 -724306874#1 -724306874#0 -399541855 -399542189 -404952602#7 -404952602#6 -404952602#4 -404952602#3 -404952602#2 -404952602#1 -404952602#0 -404952594 13433114#0 13433114#1 13433114#2 13433114#3 608419124 404952608#0 976576365#0 976576365#2 976576365#3 -13330404#1 -13330404#0 -405492994 -405492978#1 -405492978#0 -405492967 -1002506672 -405492989 -405492983 -401280480#2 -401280480#1 -401280480#0 -719920980 -719920981 -401280479#2 -401280479#0 -401280481 -401280482 -844266946 -401280471 -401280476 -401280473 -401280472 -401280477#2 -401280477#1 -401280477#0 39497566 1365889296 448565809 448565810 39497550 604115940 604115937 608749309#1">
        <stop busStop="t1BD-b27B3-sl4.0" duration="10" until="0"/> <!-- Peck Rd and Stewart St -->
        <stop busStop="t1C7-b27B4-sl4.0" duration="10" until="66"/> <!-- Valley Blvd &amp; Peck Rd -->
        <stop busStop="t1C7-b27B4-sl4.1" duration="10" until="112"/> <!-- Valley Blvd and Johnson Ave W -->
        <stop busStop="t1C7-b27B4-sl4.2" duration="10" until="176"/> <!-- Ramona Blvd and Main St W -->
        <stop busStop="t1C7-b27B4-sl4.3" duration="10" until="214"/> <!-- Ramona Blvd and Tyler Ave W -->
        <stop busStop="t1C7-b27B4-sl4.4" duration="10" until="264"/> <!-- Ramona Blvd and Lexington Ave W -->
        <stop busStop="t1C7-b27B4-sl4.5" duration="10" until="426"/> <!-- El Monte Station Lower Level -->
    </route>
    <route id="t1BD-b27B5-sl4" edges="608749309#1 -604115944 -39497560#2 -39497560#1 -39497560#0 401279508 401279518 401280477#0 401280477#1 401280477#2 401280472 401280473 401280476 401280471 844266946 401280482 401280481 401280479#0 401280479#2 719920981 719920980 401280480#0 401280480#1 401280480#2 405492972 405492989 1002506672 405492967 405492978#0 405492978#1 405492994 13330404#0 13330404#1 976576366#0 976576366#1 976576367#0 889471572#0 889471573 -13433114#3 -13433114#2 -13433114#1 -13433114#0 -1318042076 404952602#0 404952602#1 404952602#2 404952602#3 404952602#4 404952602#6 404952602#7 399542189 399541855 724306874#0 724306874#1 648979728 648979716#1 648979703#0 44546424 1022491851 399543248 399542658 399542659 405497657#0 405497690">
        <stop busStop="t1C7-b27B4-sl4.5" duration="10" until="0"/> <!-- El Monte Station Lower Level -->
        <stop busStop="t1F4-b2714-sl4.1" duration="10" until="125"/> <!-- Ramona Blvd and Lexington Ave E -->
        <stop busStop="t1F4-b2714-sl4.2" duration="10" until="186"/> <!-- Ramona Blvd and Tyler Ave E -->
        <stop busStop="t1F4-b2714-sl4.3" duration="10" until="244"/> <!-- Valley Blvd and Ramona Blvd E -->
        <stop busStop="t1F4-b2714-sl4.4" duration="10" until="288"/> <!-- Valley Blvd and Johnson Ave E -->
        <stop busStop="t1BD-b27B5-sl4.5" duration="10" until="347"/> <!-- Peck Rd and Valley Blvd -->
        <stop busStop="t1BD-b27B5-sl4.6" duration="10" until="416"/> <!-- Peck Rd and Stewart St -->
    </route>
    <route id="t1F4-b15FA4-sl4" edges="-648979703#1 -648979716#1 -648979728 -724306874#1 -724306874#0 -399541855 -399542189 -404952602#7 -404952602#6 -404952602#4 -404952602#3 -404952602#2 -404952602#1 -404952602#0 -404952594 13433114#0 13433114#1 13433114#2 13433114#3 608419124 404952608#0 976576365#0 976576365#2 976576365#3 -13330404#1 -13330404#0 -405492994 -405492978#1 -405492978#0 -405492967 -1002506672 -405492989 -405492983 -401280480#2 -401280480#1 -401280480#0 -719920980 -719920981 -401280479#2 -401280479#0 -401280481 -401280482 -844266946 -401280471 -401280476 -401280473 -401280472 -401280477#2 -401280477#1 -401280477#0 39497566 1365889296 448565809 448565810 39497550 604115940 604115937 608749309#1">
        <stop busStop="t1C7-b27B4-sl4.0" duration="10" until="0"/> <!-- Valley Blvd &amp; Peck Rd -->
        <stop busStop="t1C7-b27B4-sl4.1" duration="10" until="41"/> <!-- Valley Blvd and Johnson Ave W -->
        <stop busStop="t1C7-b27B4-sl4.2" duration="10" until="98"/> <!-- Ramona Blvd and Main St W -->
        <stop busStop="t1C7-b27B4-sl4.3" duration="10" until="133"/> <!-- Ramona Blvd and Tyler Ave W -->
        <stop busStop="t1C7-b27B4-sl4.4" duration="10" until="177"/> <!-- Ramona Blvd and Lexington Ave W -->
        <stop busStop="t1C7-b27B4-sl4.5" duration="10" until="322"/> <!-- El Monte Station Lower Level -->
    </route>
    <route id="t20D-b1601F-sl4" edges="608749309#1 -604115944 -39497560#2 -39497560#1 -39497560#0 401279508 401279518 401280477#0 401280477#1 401280477#2 401280472 401280473 401280476 401280471 844266946 401280482 401280481 401280479#0 401280479#2 719920981 719920980 401280480#0 401280480#1 401280480#2 405492972 405492989 1002506672 405492967 405492978#0 405492978#1 405492994 13330404#0 13330404#1 976576366#0 976576366#1 976576367#0 889471572#0 889471573 -13433114#3 -13433114#2 -13433114#1 -13433114#0 -1318042076 404952602#0 404952602#1 404952602#2 404952602#3 404952602#4 404952602#6 404952602#7 399542189 399541855 724306874#0 724306874#1 648979728 648979716#1">
        <stop busStop="t1C7-b27B4-sl4.5" duration="10" until="0"/> <!-- El Monte Station Lower Level -->
        <stop busStop="t1F4-b2714-sl4.1" duration="10" until="108"/> <!-- Ramona Blvd and Lexington Ave E -->
        <stop busStop="t1F4-b2714-sl4.2" duration="10" until="160"/> <!-- Ramona Blvd and Tyler Ave E -->
        <stop busStop="t1F4-b2714-sl4.3" duration="10" until="210"/> <!-- Valley Blvd and Ramona Blvd E -->
        <stop busStop="t1F4-b2714-sl4.4" duration="10" until="248"/> <!-- Valley Blvd and Johnson Ave E -->
        <stop busStop="t1F4-b2714-sl4.5" duration="10" until="290"/> <!-- Valley Blvd and Peck Rd E -->
    </route>
    <route id="t1AE-b15F91-sl4" edges="-399550744#2 -399550744#1 -399550744#0 -400823777#3 -400823777#2 -400823777#0 -72157799#1 -72157799#0 -28312221 400823782 400823791#0 400823791#1 1043712199 1043712198 400823780 770601483#1 401279508 401279518 39497566 1365889296 448565809 448565810 39497550">
        <stop busStop="t258-b2795-sl4.0" duration="10" until="0"/> <!-- Santa Anita Ave and Mildred St W -->
        <stop busStop="t1AE-b15F91-sl4.1" duration="10" until="182"/> <!-- El Monte Station Upper Level -->
    </route>
    <route id="t1BD-b1601C-sl4" edges="39497550 604115940 448565811#0 580342766#1 -448565809 -1365889296 -39497566 -401279518 -401279508 -770601483#1 -400823780 -1043712198 -1043712199 -400823791#1 -400823791#0 -400823782 28312221 72157799#0 72157799#1 400823777#0">
        <stop busStop="t1AE-b15F91-sl4.1" duration="10" until="0"/> <!-- El Monte Station Upper Level -->
        <stop busStop="t25D-b277B-sl4.1" duration="10" until="238"/> <!-- Santa Anita Ave and Asher St E -->
    </route>
    <route id="t960-b15F97-sl4.trimmed" edges="400823777#0">
        <stop busStop="t25D-b277B-sl4.1" duration="10" until="0"/> <!-- Santa Anita Ave and Asher St E -->
    </route>
    <route id="t19A-b15FB9-sl4" edges="-405497700 -844176767 -45481513 -405497708 1026947678 1026947679#0 976576365#0 976576365#2 976576365#3 -13330404#1 -13330404#0 -405492994 -405492978#1 -405492978#0 -405492967 -1002506672 -405492989 -405492983 -401280480#2 -401280480#1 -401280480#0 -719920980 -719920981 -401280479#2 -401280479#0 -401280481 -401280482 -844266946 -401280471 -401280476 -401280473 -401280472 -401280477#2 -401280477#1 -401280477#0 39497566 1365889296 448565809 448565810 39497550">
        <stop busStop="t14-b2784-sl4.0" duration="10" until="0"/> <!-- Ramona Blvd and Orchard St -->
        <stop busStop="t1C7-b27B4-sl4.2" duration="10" until="139"/> <!-- Ramona Blvd and Main St W -->
        <stop busStop="t1C7-b27B4-sl4.3" duration="10" until="191"/> <!-- Ramona Blvd and Tyler Ave W -->
        <stop busStop="t1C7-b27B4-sl4.4" duration="10" until="259"/> <!-- Ramona Blvd and Lexington Ave W -->
        <stop busStop="t1AE-b15F91-sl4.1" duration="10" until="374"/> <!-- El Monte Station Upper Level -->
    </route>
    <route id="t21C-b15FC1-sl4" edges="39497550 604115940 448565811#0 580342766#1 -448565809 -1365889296 -39497566 401280477#0 401280477#1 401280477#2 401280472 401280473 401280476 401280471 844266946 401280482 401280481 401280479#0 401280479#2 719920981 719920980 401280480#0 401280480#1 401280480#2 405492972 405492989 1002506672 405492967 405492978#0 405492978#1 405492994 13330404#0 13330404#1 976576366#0 976576366#1 976576367#0 405497704#0 687300872 405497708 45481513 844176767 405497700">
        <stop busStop="t1AE-b15F91-sl4.1" duration="10" until="0"/> <!-- El Monte Station Upper Level -->
        <stop busStop="t1F4-b2714-sl4.1" duration="10" until="141"/> <!-- Ramona Blvd and Lexington Ave E -->
        <stop busStop="t1F4-b2714-sl4.2" duration="10" until="196"/> <!-- Ramona Blvd and Tyler Ave E -->
        <stop busStop="t14-b27A3-sl4.3" duration="10" until="251"/> <!-- Ramona Blvd and Valley Blvd E -->
        <stop busStop="t14-b27A3-sl4.4" duration="10" until="332"/> <!-- Ramona Blvd and Lee Ln -->
    </route>
    <route id="t1A9-b1601D-sl4" edges="405337823 405337862#0 405337862#1 405337862#2 405337862#3 405337855 405337866#0 405337866#1 405337866#2 405337866#3 405337866#4 405337859#0 405337859#1 405336655#1 405336655#2 405336652#0 405336652#1 405336661#0 405336661#1 405336661#3 405336661#4 405336661#5 405336661#6 1221691599 405336642 405336657#0 405336657#1 405336657#2 405336657#3 405336657#4 405336639#0 405336639#1 405336664#0 405336664#3 405336664#4 405336644 405336660 1036527249#0 1036527249#1 25003116 405337880#1 405337880#2 405337880#3 405337880#4 405337867#0 405337877#0 405337877#1 405337878#0 405337873#0 405337873#1 680311701 405337868 405493036#0 405493036#1 1036530139 405493012 405493043#0 405493043#1 405493043#2 405493004 1094481473 405493034 405493030#0 405493048#0 405493048#1 405493025 405493041 405493017#0 182050922#0 401279512 1083115312 401279511 401279534#0 946725601#0 401279521#0 401279531#0 -1365257229#1 -1365257229#0 -739030982 -41734286 -401279523#1 -401279523#0 39497566 1365889296 448565809 448565810 39497550">
        <stop busStop="t1A9-b1601D-sl4.0" duration="10" until="0"/> <!-- Live Oak Ave and Second Ave W -->
        <stop busStop="t1A9-b1601D-sl4.1" duration="10" until="30"/> <!-- Live Oak Ave and Greenfield Ave W -->
        <stop busStop="t1A9-b1601D-sl4.2" duration="10" until="87"/> <!-- Santa Anita Ave and Live Oak Ave W -->
        <stop busStop="t1A9-b1601D-sl4.3" duration="10" until="130"/> <!-- Santa Anita Ave and Daines Dr W -->
        <stop busStop="t1A9-b1601D-sl4.4" duration="10" until="193"/> <!-- Santa Anita Ave and Freer St W -->
        <stop busStop="t1A9-b1601D-sl4.5" duration="10" until="254"/> <!-- Santa Anita Ave and West Hondo Pkwy W -->
        <stop busStop="t1A9-b1601D-sl4.6" duration="10" until="344"/> <!-- Santa Anita Ave and Lower Azusa Rd W -->
        <stop busStop="t1A9-b1601D-sl4.7" duration="10" until="394"/> <!-- Santa Anita Ave and Mulhall St W -->
        <stop busStop="t1A9-b1601D-sl4.8" duration="10" until="473"/> <!-- Santa Anita Ave and Tyler Ave W -->
        <stop busStop="t1A9-b1601D-sl4.9" duration="10" until="556"/> <!-- Santa Anita Ave and Bryant Rd W -->
        <stop busStop="t1A9-b1601D-sl4.10" duration="10" until="677"/> <!-- Santa Anita Ave and Valley Blvd W -->
        <stop busStop="t1AE-b15F91-sl4.1" duration="10" until="807"/> <!-- El Monte Station Upper Level -->
    </route>
    <route id="t212-b15F99-sl4" edges="39497550 604115940 448565811#0 580342766#1 -448565809 -1365889296 -39497566 401279523#0 401279523#1 41734286 739030982 1365257229#0 1365257229#1 401279526#0 401279510 401279509 401279514 946725603#0 401279529#0 401279513 25003117#0 25003117#1 405493022#0 405493039 1036711156 405493009 405493046 405493027#0 415101867 405493001#0 405493001#1 405493001#2 1094481475#0 1094481475#1 1094481475#2 1094481475#3 405493014 405493032#0 405493032#1 405493032#2 405493019 405493007 1036530140#0 1036530140#1 1036530140#2 405337869 405337870#0 405337870#1 405337870#2 405337876#0 405337876#1 405337879 405337871#0 405337874 405337875#0 405337875#1 405337875#2 -25003116 405336663#1 405336663#2 405336663#3 1036527248 405336640#0 405336640#1 405336662#0 405336654#0 405336651 405336659#1 405336659#2 405336659#3 405336648 405336647#0 405336647#1 405336641 405336658#0 405336658#1 405336658#2 405336658#3 405336658#4 405336650 405336656#0 405337852#0 405337852#1 405337842 405337863#0 405337863#1 405337863#2 405337847 405337865#0 405337865#1 405337865#2 405337826">
        <stop busStop="t1AE-b15F91-sl4.1" duration="10" until="0"/> <!-- El Monte Station Upper Level -->
        <stop busStop="t212-b15F99-sl4.1" duration="10" until="160"/> <!-- Santa Anita Ave and Main St E -->
        <stop busStop="t212-b15F99-sl4.2" duration="10" until="299"/> <!-- Santa Anita Ave and Bryant Rd E -->
        <stop busStop="t212-b15F99-sl4.3" duration="10" until="372"/> <!-- Santa Anita Ave and Tyler Ave E -->
        <stop busStop="t212-b15F99-sl4.4" duration="10" until="459"/> <!-- Santa Anita Ave and Mulhall St E -->
        <stop busStop="t212-b15F99-sl4.5" duration="10" until="511"/> <!-- Santa Anita Ave and Lower Azusa Rd E -->
        <stop busStop="t212-b15F99-sl4.6" duration="10" until="599"/> <!-- Santa Anita Ave and West Hondo Pkwy E -->
        <stop busStop="t212-b15F99-sl4.7" duration="10" until="658"/> <!-- Santa Anita Ave and Freer St E -->
        <stop busStop="t212-b15F99-sl4.8" duration="10" until="713"/> <!-- Santa Anita Ave and Daines Dr E -->
        <stop busStop="t212-b15F99-sl4.9" duration="10" until="780"/> <!-- Live Oak Ave and Santa Anita Ave E -->
        <stop busStop="t212-b15F99-sl4.10" duration="10" until="812"/> <!-- Live Oak Ave and Myrtus Ave E -->
        <stop busStop="t212-b15F99-sl4.11" duration="10" until="843"/> <!-- Live Oak Ave and Tyler Ave E -->
    </route>
    <route id="t12C-b2815-sl4" edges="39497550">
        <stop busStop="t1AE-b15F91-sl4.1" duration="10" until="0"/> <!-- El Monte Station Upper Level -->
    </route>
    <vehicle id="t1C7-b27B4-sl4.0" route="t1C7-b27B4-sl4" type="bus" depart="22700" line="t1C7-b27B4-sl4">
        <param key="gtfs.route_name" value="178"/>
        <param key="gtfs.trip_headsign" value="West: El Monte Station"/>
    </vehicle>
    <vehicle id="t1F4-b2714-sl4.0" route="t1F4-b2714-sl4" type="bus" depart="17990" line="t1F4-b2714-sl4">
        <param key="gtfs.route_name" value="178"/>
        <param key="gtfs.trip_headsign" value="East: Puente Hills Mall"/>
    </vehicle>
    <vehicle id="t20D-b2791-sl4.0" route="t1C7-b27B4-sl4" type="bus" depart="24832" line="t1C7-b27B4-sl4">
        <param key="gtfs.route_name" value="178"/>
        <param key="gtfs.trip_headsign" value="West: El Monte Station via Baldwin"/>
    </vehicle>
    <vehicle id="t212-b2726-sl4.0" route="t1F4-b2714-sl4" type="bus" depart="19790" line="t1F4-b2714-sl4">
        <param key="gtfs.route_name" value="178"/>
        <param key="gtfs.trip_headsign" value="East: Puente Hills Mall"/>
    </vehicle>
    <vehicle id="t22B-b2716-sl4.0" route="t1C7-b27B4-sl4" type="bus" depart="26692" line="t1C7-b27B4-sl4">
        <param key="gtfs.route_name" value="178"/>
        <param key="gtfs.trip_headsign" value="West: El Monte Station via Baldwin"/>
    </vehicle>
    <vehicle id="t258-b2718-sl4.0" route="t1F4-b2714-sl4" type="bus" depart="21590" line="t1F4-b2714-sl4">
        <param key="gtfs.route_name" value="178"/>
        <param key="gtfs.trip_headsign" value="East: Puente Hills Mall via Baldwin"/>
    </vehicle>
    <vehicle id="t271-b2717-sl4.0" route="t1C7-b27B4-sl4" type="bus" depart="28492" line="t1C7-b27B4-sl4">
        <param key="gtfs.route_name" value="178"/>
        <param key="gtfs.trip_headsign" value="West: El Monte Station via Baldwin"/>
    </vehicle>
    <vehicle id="t276-b2719-sl4.0" route="t1F4-b2714-sl4" type="bus" depart="23390" line="t1F4-b2714-sl4">
        <param key="gtfs.route_name" value="178"/>
        <param key="gtfs.trip_headsign" value="East: Puente Hills Mall via Baldwin"/>
    </vehicle>
    <vehicle id="t28F-b2714-sl4.0" route="t1C7-b27B4-sl4" type="bus" depart="30592" line="t1C7-b27B4-sl4">
        <param key="gtfs.route_name" value="178"/>
        <param key="gtfs.trip_headsign" value="West: El Monte Station via Baldwin"/>
    </vehicle>
    <vehicle id="t2BC-b2715-sl4.0" route="t1F4-b2714-sl4" type="bus" depart="25190" line="t1F4-b2714-sl4">
        <param key="gtfs.route_name" value="178"/>
        <param key="gtfs.trip_headsign" value="East: Puente Hills Mall via Baldwin"/>
    </vehicle>
    <vehicle id="t2D5-b2778-sl4.0" route="t1C7-b27B4-sl4" type="bus" depart="32212" line="t1C7-b27B4-sl4">
        <param key="gtfs.route_name" value="178"/>
        <param key="gtfs.trip_headsign" value="West: El Monte Station"/>
    </vehicle>
    <vehicle id="t2DA-b2729-sl4.0" route="t1F4-b2714-sl4" type="bus" depart="26990" line="t1F4-b2714-sl4">
        <param key="gtfs.route_name" value="178"/>
        <param key="gtfs.trip_headsign" value="East: Puente Hills Mall via Baldwin"/>
    </vehicle>
    <vehicle id="t2F3-b2718-sl4.0" route="t1C7-b27B4-sl4" type="bus" depart="34312" line="t1C7-b27B4-sl4">
        <param key="gtfs.route_name" value="178"/>
        <param key="gtfs.trip_headsign" value="West: El Monte Station via Baldwin"/>
    </vehicle>
    <vehicle id="t320-b2712-sl4.0" route="t1F4-b2714-sl4" type="bus" depart="28790" line="t1F4-b2714-sl4">
        <param key="gtfs.route_name" value="178"/>
        <param key="gtfs.trip_headsign" value="East: Puente Hills Mall via Baldwin"/>
    </vehicle>
    <vehicle id="t339-b2719-sl4.0" route="t1C7-b27B4-sl4" type="bus" depart="35872" line="t1C7-b27B4-sl4">
        <param key="gtfs.route_name" value="178"/>
        <param key="gtfs.trip_headsign" value="West: El Monte Station"/>
    </vehicle>
    <vehicle id="t33E-b2711-sl4.0" route="t1F4-b2714-sl4" type="bus" depart="30590" line="t1F4-b2714-sl4">
        <param key="gtfs.route_name" value="178"/>
        <param key="gtfs.trip_headsign" value="East: Puente Hills Mall via Baldwin"/>
    </vehicle>
    <vehicle id="t357-b271A-sl4.0" route="t1C7-b27B4-sl4" type="bus" depart="37972" line="t1C7-b27B4-sl4">
        <param key="gtfs.route_name" value="178"/>
        <param key="gtfs.trip_headsign" value="West: El Monte Station via Baldwin"/>
    </vehicle>
    <vehicle id="t384-b27C6-sl4.0" route="t1F4-b2714-sl4" type="bus" depart="32390" line="t1F4-b2714-sl4">
        <param key="gtfs.route_name" value="178"/>
        <param key="gtfs.trip_headsign" value="East: Puente Hills Mall via Baldwin"/>
    </vehicle>
    <vehicle id="t39D-b2715-sl4.0" route="t1C7-b27B4-sl4" type="bus" depart="39472" line="t1C7-b27B4-sl4">
        <param key="gtfs.route_name" value="178"/>
        <param key="gtfs.trip_headsign" value="West: El Monte Station"/>
    </vehicle>
    <vehicle id="t3A2-b2736-sl4.0" route="t1F4-b2714-sl4" type="bus" depart="34190" line="t1F4-b2714-sl4">
        <param key="gtfs.route_name" value="178"/>
        <param key="gtfs.trip_headsign" value="East: Puente Hills Mall"/>
    </vehicle>
    <vehicle id="t3BB-b2712-sl4.0" route="t1C7-b27B4-sl4" type="bus" depart="41272" line="t1C7-b27B4-sl4">
        <param key="gtfs.route_name" value="178"/>
        <param key="gtfs.trip_headsign" value="West: El Monte Station"/>
    </vehicle>
    <vehicle id="t3E8-b2775-sl4.0" route="t1F4-b2714-sl4" type="bus" depart="35990" line="t1F4-b2714-sl4">
        <param key="gtfs.route_name" value="178"/>
        <param key="gtfs.trip_headsign" value="East: Puente Hills Mall via Baldwin"/>
    </vehicle>
    <vehicle id="t401-b2711-sl4.0" route="t1C7-b27B4-sl4" type="bus" depart="43372" line="t1C7-b27B4-sl4">
        <param key="gtfs.route_name" value="178"/>
        <param key="gtfs.trip_headsign" value="West: El Monte Station via Baldwin"/>
    </vehicle>
    <vehicle id="t406-b27B3-sl4.0" route="t1F4-b2714-sl4" type="bus" depart="37790" line="t1F4-b2714-sl4">
        <param key="gtfs.route_name" value="178"/>
        <param key="gtfs.trip_headsign" value="East: Puente Hills Mall"/>
    </vehicle>
    <vehicle id="t41F-b2713-sl4.0" route="t1C7-b27B4-sl4" type="bus" depart="44872" line="t1C7-b27B4-sl4">
        <param key="gtfs.route_name" value="178"/>
        <param key="gtfs.trip_headsign" value="West: El Monte Station"/>
    </vehicle>
    <vehicle id="t44C-b2796-sl4.0" route="t1F4-b2714-sl4" type="bus" depart="39590" line="t1F4-b2714-sl4">
        <param key="gtfs.route_name" value="178"/>
        <param key="gtfs.trip_headsign" value="East: Puente Hills Mall via Baldwin"/>
    </vehicle>
    <vehicle id="t465-b27DB-sl4.0" route="t1C7-b27B4-sl4" type="bus" depart="46972" line="t1C7-b27B4-sl4">
        <param key="gtfs.route_name" value="178"/>
        <param key="gtfs.trip_headsign" value="West: El Monte Station via Baldwin"/>
    </vehicle>