<?xml version="1.0" encoding="UTF-8"?>

<!-- generated on 2025-05-04 00:30:38.747331 by osmWebWizard.py UNKNOWN
<configuration>
    <net-file value="/Users/nedasarbalavandeymir/Sumo/2025-05-04-00-29-58/osm.net.xml.gz"/>
    <output-trip-file value="/Users/nedasarbalavandeymir/Sumo/2025-05-04-00-29-58/osm.bus.trips.xml"/>
    <route-file value="/Users/nedasarbalavandeymir/Sumo/2025-05-04-00-29-58/osm.bus.rou.xml"/>
    <prefix value="bus"/>
    <trip-attributes value="departLane=&quot;best&quot;"/>
    <fringe-start-attributes value="departSpeed=&quot;max&quot;"/>
    <vehicle-class value="bus"/>
    <fringe-factor value="5"/>
    <vclass value="bus"/>
    <via-edge-types value="highway.motorway,highway.motorway_link,highway.trunk_link,highway.primary_link,highway.secondary_link,highway.tertiary_link"/>
    <min-distance value="600.0"/>
    <min-distance.fringe value="10.0"/>
    <remove-loops value="True"/>
    <validate value="True"/>
    <insertion-density value="4.0"/>
</configuration>
-->

<!-- generated on 2025-05-04 00:30:38 by Eclipse SUMO duarouter Version 1.22.0
<duarouterConfiguration xmlns:xsi="http://www.w3.org/2001/XMLSchema-instance" xsi:noNamespaceSchemaLocation="http://sumo.dlr.de/xsd/duarouterConfiguration.xsd">

    <input>
        <net-file value="/Users/nedasarbalavandeymir/Sumo/2025-05-04-00-29-58/osm.net.xml.gz"/>
        <route-files value="/Users/nedasarbalavandeymir/Sumo/2025-05-04-00-29-58/osm.bus.trips.xml"/>
    </input>

    <output>
        <output-file value="/Users/nedasarbalavandeymir/Sumo/2025-05-04-00-29-58/osm.bus.trips.xml.tmp"/>
        <alternatives-output value="NUL"/>
        <write-trips value="true"/>
    </output>

    <processing>
        <remove-loops value="true"/>
    </processing>

    <time>
        <begin value="0.0"/>
        <end value="3600.0"/>
    </time>

    <report>
        <no-warnings value="true"/>
        <ignore-errors value="true"/>
        <no-step-log value="true"/>
    </report>

</duarouterConfiguration>
-->

<routes xmlns:xsi="http://www.w3.org/2001/XMLSchema-instance" xsi:noNamespaceSchemaLocation="http://sumo.dlr.de/xsd/routes_file.xsd">
    <vType id="bus_bus" vClass="bus"/>
    <trip id="bus0" type="bus_bus" depart="0.00" departLane="best" from="13399210#62" to="-1151926182#0"/>
    <trip id="bus1" type="bus_bus" depart="15.12" departLane="best" from="-13471953#1" to="-13439862"/>
    <trip id="bus2" type="bus_bus" depart="30.24" departLane="best" departSpeed="max" from="24672459#0" to="13417734#3"/>
    <trip id="bus3" type="bus_bus" depart="45.37" departLane="best" from="4581191#0" to="-13364064#26"/>
    <trip id="bus4" type="bus_bus" depart="60.49" departLane="best" from="-72011935#1" to="-1278736020#1"/>
    <trip id="bus5" type="bus_bus" depart="75.61" departLane="best" from="-13407681#1" to="13387500"/>
    <trip id="bus6" type="bus_bus" depart="90.73" departLane="best" from="405544795#0" to="-1020207053#12"/>
    <trip id="bus7" type="bus_bus" depart="105.86" departLane="best" from="405543907#2" to="13452744"/>
    <trip id="bus8" type="bus_bus" depart="120.98" departLane="best" departSpeed="max" from="406215616#0" to="-13397196#7"/>
    <trip id="bus9" type="bus_bus" depart="136.10" departLane="best" from="405543907#3" to="1351507114#1"/>
    <trip id="bus10" type="bus_bus" depart="151.22" departLane="best" from="13364064#19" to="715719943#1"/>
    <trip id="bus11" type="bus_bus" depart="166.34" departLane="best" departSpeed="max" from="-466737068" to="13364064#33"/>
    <trip id="bus12" type="bus_bus" depart="181.47" departLane="best" departSpeed="max" from="406209727" to="13399210#25"/>
    <trip id="bus13" type="bus_bus" depart="196.59" departLane="best" from="-13359029#3" to="-13462346#0"/>
    <trip id="bus14" type="bus_bus" depart="211.71" departLane="best" from="-13364064#3" to="-405274909#1"/>
    <trip id="bus15" type="bus_bus" depart="226.83" departLane="best" from="13399210#56" to="46967216#1"/>
    <trip id="bus16" type="bus_bus" depart="241.95" departLane="best" departSpeed="max" from="-13469099" to="-59712281#10"/>
    <trip id="bus17" type="bus_bus" depart="257.08" departLane="best" from="-13399210#77" to="-13399210#13"/>
    <trip id="bus18" type="bus_bus" depart="272.20" departLane="best" from="13399210#27" to="1351507114#0"/>
    <trip id="bus19" type="bus_bus" depart="287.32" departLane="best" from="13399210#17" to="-59712281#1"/>
    <trip id="bus21" type="bus_bus" depart="317.57" departLane="best" from="13417734#6" to="-1278736020#2"/>
    <trip id="bus22" type="bus_bus" depart="332.69" departLane="best" from="-405325368#4" to="1355191056#10"/>
    <trip id="bus23" type="bus_bus" depart="347.81" departLane="best" from="13399210#9" to="-59712281#5"/>
    <trip id="bus24" type="bus_bus" depart="362.93" departLane="best" departSpeed="max" from="406219019" to="-406209724"/>
    <trip id="bus25" type="bus_bus" depart="378.05" departLane="best" from="-13399210#88" to="-647395530"/>
    <trip id="bus26" type="bus_bus" depart="393.18" departLane="best" from="59712267#5" to="-1051736210#0"/>
    <trip id="bus27" type="bus_bus" depart="408.30" departLane="best" from="-59712281#2" to="-13420405#5"/>
    <trip id="bus28" type="bus_bus" depart="423.42" departLane="best" from="982784187#0" to="13319605"/>
    <trip id="bus29" type="bus_bus" depart="438.54" departLane="best" from="-13364064#17" to="-13298805#0"/>
    <trip id="bus30" type="bus_bus" depart="453.66" departLane="best" from="-13364064#41" to="-13399210#37"/>
    <trip id="bus31" type="bus_bus" depart="468.79" departLane="best" departSpeed="max" from="405326237#0" to="-72011936#2"/>
    <trip id="bus32" type="bus_bus" depart="483.91" departLane="best" from="723822806" to="13359029#4"/>
    <trip id="bus33" type="bus_bus" depart="499.03" departLane="best" from="-1020207053#7" to="13471148#0"/>
    <trip id="bus34" type="bus_bus" depart="514.15" departLane="best" departSpeed="max" from="13439862" to="13364064#14"/>
    <trip id="bus35" type="bus_bus" depart="529.28" departLane="best" departSpeed="max" from="-13469099" to="-13399210#59"/>
    <trip id="bus36" type="bus_bus" depart="544.40" departLane="best" from="1020207053#2" to="604060296#6"/>
    <trip id="bus37" type="bus_bus" depart="559.52" departLane="best" from="406219017#0" to="-1351507116#1"/>
    <trip id="bus38" type="bus_bus" depart="574.64" departLane="best" from="13298805#2" to="-13399210#56"/>
    <trip id="bus39" type="bus_bus" depart="589.76" departLane="best" from="59712267#1" to="406215669"/>
    <trip id="bus40" type="bus_bus" depart="604.89" departLane="best" from="405325369#14" to="13359029#4"/>
    <trip id="bus41" type="bus_bus" depart="620.01" departLane="best" from="1010391346#0" to="-406209733#1"/>
    <trip id="bus42" type="bus_bus" depart="635.13" departLane="best" from="1051736210#4" to="59712271#4"/>
    <trip id="bus43" type="bus_bus" depart="650.25" departLane="best" departSpeed="max" from="406219019" to="405544796#7-AddedOffRampEdge"/>
    <trip id="bus44" type="bus_bus" depart="665.37" departLane="best" from="-405274916#2" to="-13315124#9"/>
    <trip id="bus45" type="bus_bus" depart="680.50" departLane="best" from="-13364064#10" to="13254895#8"/>
    <trip id="bus46" type="bus_bus" depart="695.62" departLane="best" from="13329509#1" to="29611124#1"/>
    <trip id="bus47" type="bus_bus" depart="710.74" departLane="best" from="1151919007#1" to="13364064#31"/>
    <trip id="bus48" type="bus_bus" depart="725.86" departLane="best" departSpeed="max" from="-13466205" to="406215678#1"/>
    <trip id="bus49" type="bus_bus" depart="740.99" departLane="best" from="-72011935#10" to="-13417734#3"/>
    <trip id="bus50" type="bus_bus" depart="756.11" departLane="best" from="-13399210#75" to="-405326295#0"/>
    <trip id="bus51" type="bus_bus" depart="771.23" departLane="best" from="-1151919007#0" to="13399210#74"/>
    <trip id="bus52" type="bus_bus" depart="786.35" departLane="best" from="-13364068#13" to="-13439862"/>
    <trip id="bus53" type="bus_bus" depart="801.47" departLane="best" from="406209724" to="13383988#9"/>
    <trip id="bus54" type="bus_bus" depart="816.60" departLane="best" departSpeed="max" from="-13344408" to="-13399210#42"/>
    <trip id="bus55" type="bus_bus" depart="831.72" departLane="best" from="13417734#5" to="46967216#5"/>
    <trip id="bus56" type="bus_bus" depart="846.84" departLane="best" from="406215639#0" to="13359029#1"/>
    <trip id="bus57" type="bus_bus" depart="861.96" departLane="best" departSpeed="max" from="-13448910#2" to="13406623#1"/>
    <trip id="bus58" type="bus_bus" depart="877.09" departLane="best" from="-13471953#0" to="-13383988#9"/>
    <trip id="bus59" type="bus_bus" depart="892.21" departLane="best" from="1051736210#5" to="405325364"/>
    <trip id="bus60" type="bus_bus" depart="907.33" departLane="best" from="405544792#0" to="13399210#76"/>
    <trip id="bus61" type="bus_bus" depart="922.45" departLane="best" from="-13364064#24" to="-723822806"/>
    <trip id="bus62" type="bus_bus" depart="937.57" departLane="best" from="-72011935#2" to="1051736210#9"/>
    <trip id="bus63" type="bus_bus" depart="952.70" departLane="best" from="-13399210#56" to="1029507042"/>
    <trip id="bus64" type="bus_bus" depart="967.82" departLane="best" from="-72011935#1" to="-405274916#0"/>
    <trip id="bus65" type="bus_bus" depart="982.94" departLane="best" departSpeed="max" from="-13453259" to="59712270#0"/>
    <trip id="bus67" type="bus_bus" depart="1013.18" departLane="best" from="-715719943#0" to="59712271#0"/>
    <trip id="bus68" type="bus_bus" depart="1028.31" departLane="best" from="1278736020#4" to="-13417734#6"/>
    <trip id="bus69" type="bus_bus" depart="1043.43" departLane="best" departSpeed="max" from="-13466205" to="-406217835"/>
    <trip id="bus70" type="bus_bus" depart="1058.55" departLane="best" from="1020207053#5" to="-72011936#3"/>
    <trip id="bus71" type="bus_bus" depart="1073.67" departLane="best" from="647395502" to="723822806"/>
    <trip id="bus72" type="bus_bus" depart="1088.80" departLane="best" from="-13364064#44" to="13469099"/>
    <trip id="bus73" type="bus_bus" depart="1103.92" departLane="best" from="-715719943#0" to="-13372142#0"/>
    <trip id="bus74" type="bus_bus" depart="1119.04" departLane="best" from="13364064#26" to="-1355191059#1"/>
    <trip id="bus75" type="bus_bus" depart="1134.16" departLane="best" from="-13315124#8" to="13383988#12"/>
    <trip id="bus77" type="bus_bus" depart="1164.41" departLane="best" from="-13399210#10" to="647395502"/>
    <trip id="bus78" type="bus_bus" depart="1179.53" departLane="best" from="-13359029#3" to="-13399210#7"/>
    <trip id="bus79" type="bus_bus" depart="1194.65" departLane="best" from="13420405#6" to="-13372142#1"/>
    <trip id="bus80" type="bus_bus" depart="1209.77" departLane="best" from="414764044#2" to="-13466211"/>
    <trip id="bus81" type="bus_bus" depart="1224.89" departLane="best" departSpeed="max" from="13397196#0" to="-13399210#26"/>
    <trip id="bus82" type="bus_bus" depart="1240.02" departLane="best" from="-690987761" to="13383988#12"/>
    <trip id="bus83" type="bus_bus" depart="1255.14" departLane="best" departSpeed="max" from="-13448910#2" to="-647395530"/>
    <trip id="bus84" type="bus_bus" depart="1270.26" departLane="best" from="13420405#0" to="-405325369#7"/>
    <trip id="bus85" type="bus_bus" depart="1285.38" departLane="best" from="-405325368#5" to="24672464#2"/>
    <trip id="bus86" type="bus_bus" depart="1300.51" departLane="best" departSpeed="max" from="-13344408" to="105057079#8"/>
    <trip id="bus87" type="bus_bus" depart="1315.63" departLane="best" from="982784187#1" to="723822806"/>
    <trip id="bus88" type="bus_bus" depart="1330.75" departLane="best" departSpeed="max" from="-13344408" to="-13417734#5"/>
    <trip id="bus89" type="bus_bus" depart="1345.87" departLane="best" departSpeed="max" from="-13466205" to="59712276#1"/>
    <trip id="bus90" type="bus_bus" depart="1360.99" departLane="best" from="406503365#1" to="-406219017#1"/>
    <trip id="bus91" type="bus_bus" depart="1376.12" departLane="best" from="412227861" to="13399210#25"/>
    <trip id="bus92" type="bus_bus" depart="1391.24" departLane="best" from="-406209732#0" to="-13462346#2"/>
    <trip id="bus93" type="bus_bus" depart="1406.36" departLane="best" from="13399210#21" to="72011936#17"/>
    <trip id="bus94" type="bus_bus" depart="1421.48" departLane="best" from="-13399210#86" to="1020207053#2"/>
    <trip id="bus95" type="bus_bus" depart="1436.60" departLane="best" from="405544796#8" to="-405325369#6"/>
    <trip id="bus96" type="bus_bus" depart="1451.73" departLane="best" from="13404578#6" to="59712281#14"/>
    <trip id="bus97" type="bus_bus" depart="1466.85" departLane="best" from="-13383988#11" to="-13364068#6"/>
    <trip id="bus98" type="bus_bus" depart="1481.97" departLane="best" from="13471148#2" to="13364064#48"/>
    <trip id="bus99" type="bus_bus" depart="1497.09" departLane="best" from="-1351507114#5" to="-13404578#3"/>
    <trip id="bus100" type="bus_bus" depart="1512.22" departLane="best" from="13399210#54" to="1355191054#0"/>
    <trip id="bus101" type="bus_bus" depart="1527.34" departLane="best" departSpeed="max" from="406215616#0" to="-13364064#33"/>
    <trip id="bus102" type="bus_bus" depart="1542.46" departLane="best" from="-72011935#2" to="-29610874"/>
    <trip id="bus103" type="bus_bus" depart="1557.58" departLane="best" from="1010391346#5" to="334267468#5"/>
    <trip id="bus105" type="bus_bus" depart="1587.83" departLane="best" from="-72011935#7" to="-1020207053#5"/>
    <trip id="bus106" type="bus_bus" depart="1602.95" departLane="best" from="-13354140#2" to="406504587"/>
    <trip id="bus107" type="bus_bus" depart="1618.07" departLane="best" from="569214584#0" to="13364064#25"/>
    <trip id="bus108" type="bus_bus" depart="1633.19" departLane="best" from="406209732#1" to="-13383988#10"/>
    <trip id="bus109" type="bus_bus" depart="1648.32" departLane="best" departSpeed="max" from="-13394800" to="13383988#12"/>
    <trip id="bus110" type="bus_bus" depart="1663.44" departLane="best" from="-46967216#1" to="-13417734#1"/>
    <trip id="bus111" type="bus_bus" depart="1678.56" departLane="best" from="405325369#2" to="-412227861"/>
    <trip id="bus112" type="bus_bus" depart="1693.68" departLane="best" from="13397196#6" to="59712271#5"/>
    <trip id="bus113" type="bus_bus" depart="1708.80" departLane="best" from="405544796#1" to="-406503366"/>
    <trip id="bus115" type="bus_bus" depart="1739.05" departLane="best" from="-405325373#1" to="59712271#6"/>
    <trip id="bus116" type="bus_bus" depart="1754.17" departLane="best" from="405544796#1" to="1355191056#1"/>
    <trip id="bus117" type="bus_bus" depart="1769.29" departLane="best" from="405326228#0" to="-13364068#12"/>
    <trip id="bus119" type="bus_bus" depart="1799.54" departLane="best" from="1036500992" to="-405325373#1"/>
    <trip id="bus120" type="bus_bus" depart="1814.66" departLane="best" from="405326295#3" to="-13448910#0"/>
    <trip id="bus121" type="bus_bus" depart="1829.78" departLane="best" from="-1151919007#1" to="-13399210#8"/>
    <trip id="bus122" type="bus_bus" depart="1844.90" departLane="best" from="-405325369#8" to="406215644#1"/>
    <trip id="bus123" type="bus_bus" depart="1860.03" departLane="best" from="690987758" to="-405274916#1"/>
    <trip id="bus124" type="bus_bus" depart="1875.15" departLane="best" from="-13399210#67" to="-681872106#0"/>
    <trip id="bus125" type="bus_bus" depart="1890.27" departLane="best" from="59712281#7" to="-13364068#6"/>
    <trip id="bus126" type="bus_bus" depart="1905.39" departLane="best" from="649530284#0" to="1355191055#3"/>
    <trip id="bus127" type="bus_bus" depart="1920.51" departLane="best" from="-13364064#4" to="-1010391346#0"/>
    <trip id="bus128" type="bus_bus" depart="1935.64" departLane="best" from="-1355191056#4" to="-405326295#3"/>
    <trip id="bus129" type="bus_bus" depart="1950.76" departLane="best" from="13399210#14" to="-13323113#2"/>
    <trip id="bus130" type="bus_bus" depart="1965.88" departLane="best" from="-46967216#8" to="13364068#7"/>
    <trip id="bus131" type="bus_bus" depart="1981.00" departLane="best" from="13364064#21" to="13469099"/>
    <trip id="bus132" type="bus_bus" depart="1996.12" departLane="best" from="292716907" to="13413348"/>
    <trip id="bus133" type="bus_bus" depart="2011.25" departLane="best" from="13406623#0" to="406215610#1"/>
    <trip id="bus134" type="bus_bus" depart="2026.37" departLane="best" from="-405325368#2" to="406209733#0"/>
    <trip id="bus135" type="bus_bus" depart="2041.49" departLane="best" from="-405325364" to="-72011935#2"/>
    <trip id="bus136" type="bus_bus" depart="2056.61" departLane="best" from="-13364068#7" to="72011936#18"/>
    <trip id="bus137" type="bus_bus" depart="2071.74" departLane="best" from="46967216#7" to="-13399210#21"/>
    <trip id="bus138" type="bus_bus" depart="2086.86" departLane="best" from="-13399210#87" to="-1051736210#5"/>
    <trip id="bus139" type="bus_bus" depart="2101.98" departLane="best" from="-72011936#9" to="-13417734#6"/>
    <trip id="bus140" type="bus_bus" depart="2117.10" departLane="best" from="1051736210#5" to="466737068"/>
    <trip id="bus141" type="bus_bus" depart="2132.22" departLane="best" from="405327129#0" to="-13399210#42"/>
    <trip id="bus142" type="bus_bus" depart="2147.35" departLane="best" from="-13364064#0" to="13325540"/>
    <trip id="bus143" type="bus_bus" depart="2162.47" departLane="best" from="405545577#0" to="24672464#0"/>
    <trip id="bus144" type="bus_bus" depart="2177.59" departLane="best" from="-13399210#72" to="-1151919007#2"/>
    <trip id="bus145" type="bus_bus" depart="2192.71" departLane="best" from="406215616#1" to="-13364064#0"/>
    <trip id="bus146" type="bus_bus" depart="2207.83" departLane="best" from="649530284#0" to="-13399210#4"/>
    <trip id="bus147" type="bus_bus" depart="2222.96" departLane="best" from="-13399210#64" to="13452744"/>
    <trip id="bus148" type="bus_bus" depart="2238.08" departLane="best" from="13254895#9" to="-13466211"/>
    <trip id="bus149" type="bus_bus" depart="2253.20" departLane="best" from="-13399210#88" to="-1020207053#11"/>
    <trip id="bus150" type="bus_bus" depart="2268.32" departLane="best" from="-13364064#38" to="-72011936#7"/>
    <trip id="bus151" type="bus_bus" depart="2283.45" departLane="best" from="13329509#2" to="13310118"/>
    <trip id="bus152" type="bus_bus" depart="2298.57" departLane="best" from="13417734#1" to="72011936#18"/>
    <trip id="bus153" type="bus_bus" depart="2313.69" departLane="best" departSpeed="max" from="13397196#0" to="604060295#1"/>
    <trip id="bus154" type="bus_bus" depart="2328.81" departLane="best" from="1351507114#7" to="-13315124#7"/>
    <trip id="bus155" type="bus_bus" depart="2343.93" departLane="best" departSpeed="max" from="406209727" to="13364064#29"/>
    <trip id="bus156" type="bus_bus" depart="2359.06" departLane="best" from="4581191#7" to="1355191056#4"/>
    <trip id="bus157" type="bus_bus" depart="2374.18" departLane="best" departSpeed="max" from="-13452744" to="13399210#54"/>
    <trip id="bus158" type="bus_bus" depart="2389.30" departLane="best" from="-13471148#1" to="-406209730"/>
    <trip id="bus159" type="bus_bus" depart="2404.42" departLane="best" from="13364064#23" to="-13397196#0"/>
    <trip id="bus160" type="bus_bus" depart="2419.55" departLane="best" from="13420405#1" to="13452742"/>
    <trip id="bus161" type="bus_bus" depart="2434.67" departLane="best" from="-645260839" to="13364064#21"/>
    <trip id="bus162" type="bus_bus" depart="2449.79" departLane="best" from="-715719943#0" to="46967216#4"/>
    <trip id="bus163" type="bus_bus" depart="2464.91" departLane="best" from="-406215644#1" to="24672464#4"/>
    <trip id="bus164" type="bus_bus" depart="2480.03" departLane="best" from="-690987761" to="1355191058#0"/>
    <trip id="bus165" type="bus_bus" depart="2495.16" departLane="best" departSpeed="max" from="-13413348" to="-13420405#5"/>
    <trip id="bus166" type="bus_bus" depart="2510.28" departLane="best" from="405326295#2" to="-13417734#6"/>
    <trip id="bus167" type="bus_bus" depart="2525.40" departLane="best" from="13399210#36" to="1215936134"/>
    <trip id="bus168" type="bus_bus" depart="2540.52" departLane="best" from="-59712274" to="13364064#8"/>
    <trip id="bus169" type="bus_bus" depart="2555.64" departLane="best" from="-1250927128" to="13399210#61"/>
    <trip id="bus170" type="bus_bus" depart="2570.77" departLane="best" from="-13310118" to="59712274"/>
    <trip id="bus171" type="bus_bus" depart="2585.89" departLane="best" from="-13400749" to="-406210056#1"/>
    <trip id="bus172" type="bus_bus" depart="2601.01" departLane="best" from="405274916#1" to="59712274"/>
    <trip id="bus173" type="bus_bus" depart="2616.13" departLane="best" from="-1051736210#4" to="13364064#18"/>
    <trip id="bus174" type="bus_bus" depart="2631.26" departLane="best" from="988289826#1" to="-406219020"/>
    <trip id="bus175" type="bus_bus" depart="2646.38" departLane="best" from="13399210#8" to="-405274916#2"/>
    <trip id="bus176" type="bus_bus" depart="2661.50" departLane="best" from="-13399210#82" to="24672464#4"/>
    <trip id="bus178" type="bus_bus" depart="2691.74" departLane="best" from="13364068#10" to="-13420405#3"/>
    <trip id="bus179" type="bus_bus" depart="2706.87" departLane="best" departSpeed="max" from="13464354" to="334267468#10"/>
    <trip id="bus180" type="bus_bus" depart="2721.99" departLane="best" from="334267468#11" to="-13364068#5"/>
    <trip id="bus181" type="bus_bus" depart="2737.11" departLane="best" from="-13364064#4" to="-1151926182#3"/>
    <trip id="bus182" type="bus_bus" depart="2752.23" departLane="best" from="-405325367" to="-13417734#4"/>
    <trip id="bus183" type="bus_bus" depart="2767.35" departLane="best" departSpeed="max" from="13462346#0" to="-13399210#37"/>
    <trip id="bus184" type="bus_bus" depart="2782.48" departLane="best" from="-13364064#31" to="334267468#6"/>
    <trip id="bus185" type="bus_bus" depart="2797.60" departLane="best" from="406215616#1" to="13394800"/>
    <trip id="bus186" type="bus_bus" depart="2812.72" departLane="best" from="-72011935#8" to="569214584#10"/>
    <trip id="bus189" type="bus_bus" depart="2858.09" departLane="best" from="-13364064#35" to="647395502"/>
    <trip id="bus190" type="bus_bus" depart="2873.21" departLane="best" from="13471148#3" to="-1010391346#1"/>
    <trip id="bus191" type="bus_bus" depart="2888.33" departLane="best" from="204085600#0" to="647395545#2"/>
    <trip id="bus192" type="bus_bus" depart="2903.45" departLane="best" departSpeed="max" from="-13469099" to="405326247#0"/>
    <trip id="bus193" type="bus_bus" depart="2918.58" departLane="best" from="13364064#21" to="13254895#4"/>
    <trip id="bus194" type="bus_bus" depart="2933.70" departLane="best" departSpeed="max" from="-13469099" to="406215610#1"/>
    <trip id="bus195" type="bus_bus" depart="2948.82" departLane="best" departSpeed="max" from="406209727" to="-13364064#26"/>
    <trip id="bus196" type="bus_bus" depart="2963.94" departLane="best" from="-406503366" to="-13466211"/>
    <trip id="bus198" type="bus_bus" depart="2994.19" departLane="best" from="406215616#2" to="-13399210#61"/>
    <trip id="bus199" type="bus_bus" depart="3009.31" departLane="best" from="-13400754" to="405325369#14"/>
    <trip id="bus200" type="bus_bus" depart="3024.43" departLane="best" from="-1020207053#6" to="59712283#3"/>
    <trip id="bus201" type="bus_bus" depart="3039.55" departLane="best" from="-13364064#10" to="13469099"/>
    <trip id="bus202" type="bus_bus" depart="3054.68" departLane="best" from="1278736020#9" to="-29610874"/>
    <trip id="bus203" type="bus_bus" depart="3069.80" departLane="best" departSpeed="max" from="13462346#0" to="13399210#67"/>
    <trip id="bus204" type="bus_bus" depart="3084.92" departLane="best" from="13254895#3" to="405325368#7"/>
    <trip id="bus205" type="bus_bus" depart="3100.04" departLane="best" from="-13364064#2" to="-13439862"/>
    <trip id="bus206" type="bus_bus" depart="3115.16" departLane="best" from="13383988#0" to="1278736020#0"/>
    <trip id="bus207" type="bus_bus" depart="3130.29" departLane="best" from="308459799#2" to="406215610#2"/>
    <trip id="bus208" type="bus_bus" depart="3145.41" departLane="best" departSpeed="max" from="13466211" to="1355191056#6"/>
    <trip id="bus209" type="bus_bus" depart="3160.53" departLane="best" from="13364064#19" to="29611124#1"/>
    <trip id="bus210" type="bus_bus" depart="3175.65" departLane="best" from="13399210#48" to="-13420405#10"/>
    <trip id="bus211" type="bus_bus" depart="3190.78" departLane="best" from="1278736020#3" to="13471953#1"/>
    <trip id="bus212" type="bus_bus" depart="3205.90" departLane="best" from="72011935#8" to="-13354140#4"/>
    <trip id="bus213" type="bus_bus" depart="3221.02" departLane="best" from="-1351507114#5" to="13364064#46"/>
    <trip id="bus214" type="bus_bus" depart="3236.14" departLane="best" from="-13399210#39" to="-1051736210#0"/>
    <trip id="bus215" type="bus_bus" depart="3251.26" departLane="best" from="72011935#5" to="13364064#35"/>
    <trip id="bus216" type="bus_bus" depart="3266.39" departLane="best" from="406215678#1" to="13310114"/>
    <trip id="bus217" type="bus_bus" depart="3281.51" departLane="best" from="-406219010#0" to="13364068#4"/>
    <trip id="bus218" type="bus_bus" depart="3296.63" departLane="best" from="-13399210#47" to="13315124#0"/>
    <trip id="bus219" type="bus_bus" depart="3311.75" departLane="best" from="59712281#9" to="-1278736020#4"/>
    <trip id="bus220" type="bus_bus" depart="3326.87" departLane="best" from="-13354140#1" to="13399210#4"/>
    <trip id="bus221" type="bus_bus" depart="3342.00" departLane="best" from="13364068#1" to="405325372"/>
    <trip id="bus222" type="bus_bus" depart="3357.12" departLane="best" departSpeed="max" from="72016664" to="-13372140#1"/>
    <trip id="bus223" type="bus_bus" depart="3372.24" departLane="best" from="405276417#1" to="-13399210#1"/>
    <trip id="bus224" type="bus_bus" depart="3387.36" departLane="best" departSpeed="max" from="405326237#0" to="-13448910#0"/>
    <trip id="bus225" type="bus_bus" depart="3402.49" departLane="best" from="-723822806" to="406215624"/>
    <trip id="bus226" type="bus_bus" depart="3417.61" departLane="best" from="72011936#9" to="-405326228#1"/>
    <trip id="bus228" type="bus_bus" depart="3447.85" departLane="best" departSpeed="max" from="13466211" to="105057079#4"/>
    <trip id="bus229" type="bus_bus" depart="3462.97" departLane="best" departSpeed="max" from="13462346#0" to="59712270#1"/>
    <trip id="bus230" type="bus_bus" depart="3478.10" departLane="best" from="-405326228#1" to="-13399210#34"/>
    <trip id="bus231" type="bus_bus" depart="3493.22" departLane="best" from="13404578#3" to="59712276#1"/>
    <trip id="bus232" type="bus_bus" depart="3508.34" departLane="best" from="-72011935#4" to="13364064#24"/>
    <trip id="bus233" type="bus_bus" depart="3523.46" departLane="best" from="-13399210#76" to="569214584#10"/>
    <trip id="bus234" type="bus_bus" depart="3538.58" departLane="best" from="406209724" to="13359029#2"/>
    <trip id="bus235" type="bus_bus" depart="3553.71" departLane="best" from="13399210#21" to="-405326237#1"/>
    <trip id="bus236" type="bus_bus" depart="3568.83" departLane="best" from="334267468#12" to="13364068#13"/>
    <trip id="bus237" type="bus_bus" depart="3583.95" departLane="best" from="1355191055#3" to="-13383763"/>
    <trip id="bus238" type="bus_bus" depart="3599.07" departLane="best" departSpeed="max" from="13462346#0" to="13453259"/>
</routes>
