<?xml version="1.0" encoding="UTF-8"?>

<!-- generated on 2025-05-04 01:22:37 by Eclipse SUMO netedit Version 1.22.0
-->

<routes xmlns:xsi="http://www.w3.org/2001/XMLSchema-instance" xsi:noNamespaceSchemaLocation="http://sumo.dlr.de/xsd/routes_file.xsd">
    <!-- VTypes -->
    <vType id="bus" vClass="bus"/>
    <!-- Vehicles, persons and containers (sorted by depart) -->
    <trip id="bus1" type="bus" depart="0.00" from="405543907#0" to="-13420405#1" via="405543907#1 405543907#2 405543907#3 59712270#0 59712270#1 59712270#2 59712270#3 405543905#0 59712267#0 59712267#1 59712267#2 59712267#3 59712267#5 59712267#6 59712267#7 59712267#8 59712267#9 405544796#0 405544796#1 405544796#2 405544796#3 405544796#4 405544796#5 405544796#6 405544796#7 405544796#7-AddedOffRampEdge 405544796#8 405544796#9 405544792#0 -406215639#2 -690987761 -406215627 -406504587 -72011935#10 -72011935#9 -72011935#8 -72011935#7 -72011935#6 -72011935#5 -72011935#4 -72011935#3 -72011935#2 -72011935#1 -72011935#0 -406215655#1 -406215655#0 -406215610#3 -406215610#2 -406215610#1 -406215659#1 -406215659#0 -406215624 -406215630 -406503366 -406503365#1 -406503365#0 -406215663#1 -406215663#0 -406215644#1 -406215644#0 -406215681#1 24672463#0 405327141#0 1355191058#0 1278736020#0 1278736020#1 1278736020#2 1278736020#3 1278736020#4 1278736020#5 1278736020#6 1278736020#7 1278736020#9 1278736020#10 1278736020#11 -1020207053#13 -1020207053#12 -1020207053#11 -1020207053#10 -1020207053#9 -1020207053#8 -1020207053#7 -1020207053#6 -1020207053#5 -1020207053#4 -1020207053#2 -1020207053#1 -13420405#10 -13420405#7 -13420405#6 -13420405#5 -13420405#4 -13420405#3 -13420405#2"/>
    <trip id="bus2" type="bus" depart="0.00" from="406219014#0" to="405545583#0" via="13417734#0 13417734#1 13417734#2 13417734#3 13417734#4 13417734#5 13417734#6 406219012 406219013 406219010#1 406219011 406219015 406219016 405326228#0 -405325371#1 -405325369#15 -405325369#14 -405325369#13 -405325369#11 -405325369#10 -405325369#8 -405325369#7 -405325369#6 -405325369#4 -405325369#3 -405325369#2 -405325369#1 -405325369#0 -405325366#2 -405325366#1 -405325373#1 -72011936#19 -72011936#18 -72011936#17 -72011936#16 -72011936#14 -72011936#13 -72011936#12 -72011936#10 -72011936#9 -72011936#8 -72011936#7 -72011936#6 -72011936#4 -72011936#3 -72011936#2 -72011936#1 -72011936#0 -406209733#2 -406209733#1 406215681#0 406215644#0 406215644#1 406215663#0 406215663#1 406503365#0 406503365#1 406503366 406215630 406215624 406215659#0 406215659#1 406215610#1 406215610#2 406215610#3 406215655#0 406215655#1 406215650 72011935#1 72011935#2 72011935#3 72011935#4 72011935#5 72011935#6 72011935#7 72011935#8 72011935#9 72011935#10 406504587 690987758 690987761 406215639#0 414764044#0 414764044#2 405545577#0 405545577#1 405545577#2 405545577#3 405545577#4 604060295#0 604060295#1 604060296#0 604060296#1 604060296#4 604060296#5 604060296#6 604060296#7 604060296#8 604060296#9"/>
    <flow id="car2" begin="0.00" color="red" from="13323113#1" to="-13329509#0" via="59712269 59712281#0 59712281#2 59712281#3 59712281#4 59712281#5 59712281#7 59712281#8 59712281#9 59712281#10 59712281#11 59712281#12 59712281#14 59712281#15 1351507113#0 1351507112#0 1351507112#2 1351507114#0 1351507114#1 1351507114#2 1351507114#3 1351507114#4 1351507114#5 1351507114#6 1351507114#7 1351507114#8 -13329509#2 -13329509#1" end="3600.00" vehsPerHour="1000"/>
    <flow id="car3" begin="0.00" color="red" from="308459799#0" to="406215608" via="308459799#1 308459799#2 405327161#0 1355191052#1 405327162#0 405327162#2 405327162#3 405327162#4 405327135#0 406215678#0 406215678#1 406215669 390810266#0 406215681#0 406215644#0 406215644#1 406215663#0 406215663#1 406503365#0 406503365#1 406503366 406215630 406215624 406215659#0 406215659#1 406215610#1 406215610#2 406215610#3 406215655#0 406215655#1 406215650 72011935#1 72011935#2 72011935#3 72011935#4 72011935#5 72011935#6 72011935#7 72011935#8 72011935#9 72011935#10 406504587 690987758 690987761 406215639#0 -292716907 415101865#0 415101865#2 1029507042" end="3600.00" vehsPerHour="1000"/>
    <flow id="car4" begin="0.00" color="red" from="1010391346#0" to="-13399210#1" via="1010391346#1 1010391346#2 1010391346#4 1010391346#5 -13399210#88 -13399210#87 -13399210#86 -13399210#85 -13399210#84 -13399210#82 -13399210#80 -13399210#79 -13399210#78 -13399210#77 -13399210#76 -13399210#75 -13399210#74 -13399210#72 -13399210#70 -13399210#68 -13399210#67 -13399210#66 -13399210#64 -13399210#62 -13399210#61 -13399210#60 -13399210#59 -13399210#58 -13399210#56 -13399210#55 -13399210#54 -13399210#52 -13399210#51 -13399210#48 -13399210#47 -13399210#45 -13399210#44 -13399210#43 -13399210#42 -13399210#41 -13399210#39 -13399210#38 -13399210#37 -13399210#36 -13399210#35 -13399210#34 -13399210#33 -13399210#32 -13399210#31 -13399210#29 -13399210#27 -13399210#26 -13399210#25 -13399210#24 -13399210#23 -13399210#22 -13399210#21 -13399210#20 -13399210#19 -13399210#17 -13399210#16 -13399210#15 -13399210#14 -13399210#13 -13399210#12 -13399210#11 -13399210#10 -13399210#9 -13399210#8 -13399210#7 -13399210#5 -13399210#4 -13399210#3 -13399210#2" end="3600.00" vehsPerHour="1000"/>
    <flow id="f_0" begin="0.00" color="red" from="405326237#0" to="-406219017#1" via="405326229#0 405326295#0 405326295#2 405326295#3 1250927129#0 1020207054#0 1250927128 405274916#0 405274916#1 405274916#2 405274916#3 405326247#0 -405326228#1 -406219016 -406219015 -406219011 -406219010#1 -406219010#0 -406219012 -13417734#6 -13417734#5 -13417734#4 -13417734#3 -13417734#2 -13417734#1 -13417734#0 -406219014#1 59712274" end="3600.00" vehsPerHour="1800"/>
</routes>
