<?xml version="1.0" encoding="UTF-8"?>

<!-- generated on 2025-06-25 12:17:13 by Eclipse SUMO netconvert Version v1_22_0+0728-b12b56f69e2
<netconvertConfiguration xmlns:xsi="http://www.w3.org/2001/XMLSchema-instance" xsi:noNamespaceSchemaLocation="http://sumo.dlr.de/xsd/netconvertConfiguration.xsd">

    <input>
        <sumo-net-file value="resources/gtfs/numerical.net.xml"/>
    </input>

    <output>
        <output-file value="resources/gtfs/bus.net.xml"/>
        <dlr-navteq.precision value="0"/>
        <output.street-names value="true"/>
        <output.original-names value="true"/>
    </output>

    <processing>
        <numerical-ids value="true"/>
        <geometry.min-radius.fix.railways value="false"/>
        <geometry.avoid-overlap value="false"/>
        <geometry.max-grade.fix value="false"/>
        <offset.disable-normalization value="true"/>
        <lefthand value="0"/>
    </processing>

    <edge_removal>
        <keep-edges.by-vclass value="bus"/>
    </edge_removal>

    <junctions>
        <no-internal-links value="true"/>
        <no-turnarounds value="true"/>
        <junctions.corner-detail value="0"/>
        <junctions.limit-turn-speed value="5.50"/>
        <rectangular-lane-cut value="0"/>
    </junctions>

    <pedestrian>
        <walkingareas value="0"/>
    </pedestrian>

    <report>
        <aggregate-warnings value="1"/>
    </report>

</netconvertConfiguration>
-->

<net version="1.20" limitTurnSpeed="5.50" avoidOverlap="0" xmlns:xsi="http://www.w3.org/2001/XMLSchema-instance" xsi:noNamespaceSchemaLocation="http://sumo.dlr.de/xsd/net_file.xsd">

    <location netOffset="13139299.07,-4042853.09" convBoundary="1.45,1.09,2463.81,1957.11" origBoundary="-118.032332,34.104579,-118.010199,34.119227" projParameter="+proj=merc +a=6378137 +b=6378137 +lat_ts=0.0 +lon_0=0.0 +x_0=0.0 +y_0=0 +k=1.0 +units=m +nadgrids=@null +wktext +no_defs"/>

    <type id="highway.primary" priority="12" numLanes="2" speed="27.78" disallow="tram rail_urban rail rail_electric rail_fast ship container cable_car subway aircraft wheelchair scooter drone" oneway="0"/>
    <type id="highway.primary_link" priority="7" numLanes="1" speed="22.22" disallow="tram rail_urban rail rail_electric rail_fast ship container cable_car subway aircraft wheelchair scooter drone" oneway="0"/>
    <type id="highway.residential" priority="3" numLanes="1" speed="13.89" disallow="tram rail_urban rail rail_electric rail_fast ship container cable_car subway aircraft wheelchair scooter drone" oneway="0"/>
    <type id="highway.tertiary" priority="10" numLanes="1" speed="22.22" disallow="tram rail_urban rail rail_electric rail_fast ship container cable_car subway aircraft wheelchair scooter drone" oneway="0"/>

    <edge id="-13279077" from="122560793" to="122560789" name="Doolittle Avenue" priority="3" type="highway.residential" shape="2138.32,845.16 2131.88,1313.76 2131.78,1320.59">
        <lane id="-13279077_0" index="0" disallow="tram rail_urban rail rail_electric rail_fast ship container cable_car subway aircraft wheelchair scooter drone" speed="13.89" length="475.47" shape="2139.81,852.93 2133.48,1313.41"/>
    </edge>
    <edge id="-13293201" from="122651096" to="122651092" name="Beverly Drive" priority="3" type="highway.residential" shape="1646.74,1173.03 1646.94,1104.81 1542.03,1103.75">
        <lane id="-13293201_0" index="0" disallow="tram rail_urban rail rail_electric rail_fast ship container cable_car subway aircraft wheelchair scooter drone" speed="13.89" length="173.14" shape="1645.14,1173.03 1645.34,1106.39 1549.23,1105.42"/>
    </edge>
    <edge id="-13297781" from="122682842" to="122682840" name="Danbury Street" priority="3" type="highway.residential">
        <lane id="-13297781_0" index="0" disallow="tram rail_urban rail rail_electric rail_fast ship container cable_car subway aircraft wheelchair scooter drone" speed="13.89" length="486.91" shape="872.43,105.77 398.19,26.04"/>
    </edge>
    <edge id="-13302658" from="122714903" to="122714901" name="Weidermeyer Avenue" priority="3" type="highway.residential" shape="2040.51,827.89 2033.23,1307.52 2033.13,1319.27">
        <lane id="-13302658_0" index="0" disallow="tram rail_urban rail rail_electric rail_fast ship container cable_car subway aircraft wheelchair scooter drone" speed="13.89" length="491.44" shape="2041.99,835.67 2034.83,1307.54 2034.79,1312.06"/>
    </edge>
    <edge id="-13302901" from="122716362" to="122716360" name="Cochin Avenue" priority="3" type="highway.residential">
        <lane id="-13302901_0" index="0" disallow="tram rail_urban rail rail_electric rail_fast ship container cable_car subway aircraft wheelchair scooter drone" speed="13.89" length="340.35" shape="1079.15,347.86 1094.57,23.74"/>
    </edge>
    <edge id="-13315637" from="122793637" to="122793635" name="South 5th Avenue" priority="3" type="highway.residential" shape="1291.66,954.22 1284.68,1296.09 1284.45,1307.75">
        <lane id="-13315637_0" index="0" disallow="tram rail_urban rail rail_electric rail_fast ship container cable_car subway aircraft wheelchair scooter drone" speed="13.89" length="353.60" shape="1293.11,961.48 1286.28,1296.12 1286.19,1300.56"/>
    </edge>
    <edge id="-13324019" from="732919740" to="122842100" name="Luben Lane" priority="3" type="highway.residential" shape="718.75,1655.71 726.52,1651.53 736.07,1650.33 841.16,1650.94">
        <lane id="-13324019_0" index="0" disallow="tram rail_urban rail rail_electric rail_fast ship container cable_car subway aircraft wheelchair scooter drone" speed="13.89" length="123.54" shape="717.99,1654.30 726.02,1649.98 735.97,1648.73 833.92,1649.30"/>
    </edge>
    <edge id="-13325289" from="122849848" to="12927023387" name="Ednuel Street" priority="3" type="highway.residential" shape="2410.62,1485.22 2230.03,1485.26">
        <lane id="-13325289_0" index="0" disallow="tram rail_urban rail rail_electric rail_fast ship container cable_car subway aircraft wheelchair scooter drone" speed="13.89" length="181.82" shape="2403.09,1486.82 2237.27,1486.86"/>
    </edge>
    <edge id="-13325292" from="122560758" to="122849855" name="Ednuel Street" priority="3" type="highway.residential" shape="2095.88,1511.10 1999.28,1509.49 1978.51,1513.02">
        <lane id="-13325292_0" index="0" disallow="tram rail_urban rail rail_electric rail_fast ship container cable_car subway aircraft wheelchair scooter drone" speed="13.89" length="117.68" shape="2088.64,1512.58 1999.40,1511.09 1981.53,1514.13"/>
    </edge>
    <edge id="-13331049" from="122884511" to="122884507" name="East Rodell Place" priority="3" type="highway.residential">
        <lane id="-13331049_0" index="0" disallow="tram rail_urban rail rail_electric rail_fast ship container cable_car subway aircraft wheelchair scooter drone" speed="13.89" length="97.05" shape="1537.04,973.34 1447.28,970.63"/>
    </edge>
    <edge id="-13331051" from="122884517" to="122884515" name="East Rodell Place" priority="3" type="highway.residential" shape="1167.11,886.82 1158.54,888.60 1017.98,886.47">
        <lane id="-13331051_0" index="0" disallow="tram rail_urban rail rail_electric rail_fast ship container cable_car subway aircraft wheelchair scooter drone" speed="13.89" length="149.33" shape="1160.04,889.92 1158.69,890.20 1025.21,888.18"/>
    </edge>
    <edge id="-13335570" from="122818163" to="122907672" name="7th Place" priority="3" type="highway.residential" shape="1699.83,1577.89 1731.51,1598.46 1741.44,1611.61 1750.17,1628.04 1753.75,1642.90 1755.54,1659.11 1753.78,1805.64">
        <lane id="-13335570_0" index="0" disallow="tram rail_urban rail rail_electric rail_fast ship container cable_car subway aircraft wheelchair scooter drone" speed="13.89" length="250.99" shape="1706.53,1580.33 1732.62,1597.27 1742.79,1610.75 1751.68,1627.47 1755.33,1642.62 1757.14,1659.03 1755.42,1802.46"/>
    </edge>
    <edge id="-13343475" from="122949743" to="2357985229" name="Tulip Lane" priority="3" type="highway.residential" shape="1909.51,1769.90 1919.40,1818.76 1927.51,1856.01 1929.57,1888.08 1923.60,1909.04 1922.78,1934.12">
        <lane id="-13343475_0" index="0" disallow="tram rail_urban rail rail_electric rail_fast ship container cable_car subway aircraft wheelchair scooter drone" speed="13.89" length="167.00" shape="1911.08,1769.58 1920.97,1818.43 1929.10,1855.79 1931.18,1888.25 1925.19,1909.29 1924.38,1934.17"/>
    </edge>
    <edge id="-13346419" from="12927023388" to="122966110" name="East Sandra Avenue" priority="3" type="highway.residential" shape="858.05,580.48 741.24,579.48">
        <lane id="-13346419_0" index="0" disallow="tram rail_urban rail rail_electric rail_fast ship container cable_car subway aircraft wheelchair scooter drone" speed="13.89" length="118.62" shape="850.81,582.02 744.41,581.11"/>
    </edge>
    <edge id="-13350106" from="122792374" to="122988191" name="Huddart Avenue" priority="3" type="highway.residential">
        <lane id="-13350106_0" index="0" disallow="tram rail_urban rail rail_electric rail_fast ship container cable_car subway aircraft wheelchair scooter drone" speed="13.89" length="301.78" shape="1281.24,383.81 1295.33,98.41"/>
    </edge>
    <edge id="-13358851" from="122935207" to="732917964" name="Watson Drive" priority="3" type="highway.residential">
        <lane id="-13358851_0" index="0" disallow="tram rail_urban rail rail_electric rail_fast ship container cable_car subway aircraft wheelchair scooter drone" speed="13.89" length="13.76" shape="595.78,1710.04 595.55,1713.74"/>
    </edge>
    <edge id="-13360325" from="12927023390" to="123042569" name="South 3rd Avenue" priority="3" type="highway.residential" shape="1030.03,1303.09 1030.11,1314.15 1030.96,1428.70">
        <lane id="-13360325_0" index="0" disallow="tram rail_urban rail rail_electric rail_fast ship container cable_car subway aircraft wheelchair scooter drone" speed="13.89" length="127.46" shape="1031.68,1310.51 1031.71,1314.14 1032.51,1421.62"/>
    </edge>
    <edge id="-13363203" from="122560751" to="123058981" name="Magnis Street" priority="3" type="highway.residential">
        <lane id="-13363203_0" index="0" disallow="tram rail_urban rail rail_electric rail_fast ship container cable_car subway aircraft wheelchair scooter drone" speed="13.89" length="59.77" shape="2076.47,1805.65 2019.83,1805.65"/>
    </edge>
    <edge id="-13365608" from="123073236" to="123073233" name="Verner Circle" priority="3" type="highway.residential" shape="1471.51,1601.74 1483.05,1597.92 1534.12,1599.39">
        <lane id="-13365608_0" index="0" disallow="tram rail_urban rail rail_electric rail_fast ship container cable_car subway aircraft wheelchair scooter drone" speed="13.89" length="63.25" shape="1471.01,1600.22 1482.81,1596.31 1526.94,1597.58"/>
    </edge>
    <edge id="-13395348" from="122884499" to="123293181" name="Louise Avenue" priority="3" type="highway.residential" shape="331.03,828.23 325.98,1054.08 335.43,1112.87 339.99,1148.63">
        <lane id="-13395348_0" index="0" disallow="tram rail_urban rail rail_electric rail_fast ship container cable_car subway aircraft wheelchair scooter drone" speed="13.89" length="321.50" shape="332.47,835.48 327.58,1053.97 337.01,1112.64 341.58,1148.43"/>
    </edge>
    <edge id="-13395357" from="123293240" to="122855941" name="Louise Avenue" priority="3" type="highway.residential" shape="337.51,1293.26 337.39,1303.56 336.26,1395.05 335.37,1402.51 335.96,1408.78 338.66,1413.86">
        <lane id="-13395357_0" index="0" disallow="tram rail_urban rail rail_electric rail_fast ship container cable_car subway aircraft wheelchair scooter drone" speed="13.89" length="121.36" shape="339.03,1300.48 338.99,1303.58 337.86,1395.15 336.98,1402.53 337.52,1408.31 339.75,1412.50"/>
    </edge>
    <edge id="-13395368" from="12927023393" to="2276407570" name="Louise Avenue" priority="3" type="highway.residential" shape="296.56,1893.39 296.32,1916.81">
        <lane id="-13395368_0" index="0" disallow="tram rail_urban rail rail_electric rail_fast ship container cable_car subway aircraft wheelchair scooter drone" speed="13.89" length="24.74" shape="298.08,1901.26 297.92,1916.83"/>
    </edge>
    <edge id="-13395371" from="123293349" to="12927023393" name="Louise Avenue" priority="3" type="highway.residential" shape="285.80,1843.81 285.21,1894.57">
        <lane id="-13395371_0" index="0" disallow="tram rail_urban rail rail_electric rail_fast ship container cable_car subway aircraft wheelchair scooter drone" speed="13.89" length="52.07" shape="287.40,1843.83 286.90,1886.75"/>
    </edge>
    <edge id="-13397473" from="123310108" to="360028744" name="Bishop Court" priority="3" type="highway.residential">
        <lane id="-13397473_0" index="0" disallow="tram rail_urban rail rail_electric rail_fast ship container cable_car subway aircraft wheelchair scooter drone" speed="13.89" length="101.55" shape="51.48,772.57 145.86,773.01"/>
    </edge>
    <edge id="-13398116" from="122966121" to="123315077" name="Aduana Drive" priority="3" type="highway.residential">
        <lane id="-13398116_0" index="0" disallow="tram rail_urban rail rail_electric rail_fast ship container cable_car subway aircraft wheelchair scooter drone" speed="13.89" length="136.18" shape="1848.53,800.90 1845.50,929.34"/>
    </edge>
    <edge id="-13398117" from="123315089" to="123315083" name="Aduana Drive" priority="3" type="highway.residential" shape="1838.60,1108.83 1838.81,1128.60 1863.92,1262.19 1877.37,1305.94 1878.95,1317.12">
        <lane id="-13398117_0" index="0" disallow="tram rail_urban rail rail_electric rail_fast ship container cable_car subway aircraft wheelchair scooter drone" speed="13.89" length="212.76" shape="1840.20,1108.81 1840.41,1128.44 1865.48,1261.81 1878.94,1305.59 1879.45,1309.22"/>
    </edge>
    <edge id="-13400959" from="122744853" to="123332640" name="Loganrita Avenue" priority="3" type="highway.residential">
        <lane id="-13400959_0" index="0" disallow="tram rail_urban rail rail_electric rail_fast ship container cable_car subway aircraft wheelchair scooter drone" speed="13.89" length="177.56" shape="2349.18,1154.25 2347.47,1317.35"/>
    </edge>
    <edge id="-13403445" from="122966104" to="123347771" name="South 8th Avenue" priority="3" type="highway.residential" shape="1662.66,753.78 1670.87,765.78 1712.44,975.74 1744.31,1118.20 1753.50,1210.26 1751.60,1304.12 1751.39,1314.87">
        <lane id="-13403445_0" index="0" disallow="tram rail_urban rail rail_electric rail_fast ship container cable_car subway aircraft wheelchair scooter drone" speed="13.89" length="571.71" shape="1664.90,754.23 1672.38,765.15 1714.01,975.41 1745.89,1117.94 1755.10,1210.20 1753.20,1304.15 1753.13,1307.69"/>
    </edge>
    <edge id="-13403448" from="123347800" to="123347796" name="South 8th Avenue" priority="3" type="highway.residential" shape="1798.80,1315.54 1798.59,1326.91 1796.03,1466.32 1799.46,1507.40 1819.09,1567.33 1840.56,1618.82 1842.45,1653.00">
        <lane id="-13403448_0" index="0" disallow="tram rail_urban rail rail_electric rail_fast ship container cable_car subway aircraft wheelchair scooter drone" speed="13.89" length="345.11" shape="1800.27,1322.78 1800.19,1326.94 1797.63,1466.27 1801.04,1507.08 1820.59,1566.77 1842.14,1618.46 1844.05,1652.91"/>
    </edge>
    <edge id="-13407256" from="122849855" to="123373322" name="Foss Avenue" priority="3" type="highway.residential" shape="1978.51,1513.02 1979.02,1529.20 2009.63,1684.27">
        <lane id="-13407256_0" index="0" disallow="tram rail_urban rail rail_electric rail_fast ship container cable_car subway aircraft wheelchair scooter drone" speed="13.89" length="174.25" shape="1980.20,1515.76 1980.62,1529.02 2011.00,1682.94"/>
    </edge>
    <edge id="-13411209" from="122560760" to="123401838" name="Othello Street" priority="3" type="highway.residential" shape="2097.11,1415.19 1928.92,1412.27 1909.96,1416.92">
        <lane id="-13411209_0" index="0" disallow="tram rail_urban rail rail_electric rail_fast ship container cable_car subway aircraft wheelchair scooter drone" speed="13.89" length="187.74" shape="2089.81,1416.66 1929.10,1413.87 1910.34,1418.47"/>
    </edge>
    <edge id="-13421841" from="123303723" to="1923854842" name="Hodges Avenue" priority="3" type="highway.residential" shape="2371.66,404.74 2337.65,438.49 2328.77,451.65 2323.49,463.28 2319.61,479.40 2301.11,586.88 2280.34,711.86">
        <lane id="-13421841_0" index="0" disallow="tram rail_urban rail rail_electric rail_fast ship container cable_car subway aircraft wheelchair scooter drone" speed="11.18" length="328.90" shape="2367.60,411.02 2338.89,439.52 2330.17,452.43 2325.01,463.80 2321.18,479.72 2302.69,587.15 2283.10,705.00"/>
    </edge>
    <edge id="-13424704" from="122792377" to="123273064" name="Garypark Avenue" priority="3" type="highway.residential">
        <lane id="-13424704_0" index="0" disallow="tram rail_urban rail rail_electric rail_fast ship container cable_car subway aircraft wheelchair scooter drone" speed="13.89" length="276.36" shape="1384.89,402.41 1413.67,143.04"/>
    </edge>
    <edge id="-13425126" from="123506507" to="123506505" name="Lovejoy Street" priority="3" type="highway.residential">
        <lane id="-13425126_0" index="0" disallow="tram rail_urban rail rail_electric rail_fast ship container cable_car subway aircraft wheelchair scooter drone" speed="13.89" length="58.75" shape="2294.76,1050.92 2243.27,1049.57"/>
    </edge>
    <edge id="-13425127" from="123373341" to="1923879135" name="Lovejoy Street" priority="3" type="highway.residential" shape="1939.94,1012.93 1875.63,1012.12 1855.63,1016.84">
        <lane id="-13425127_0" index="0" disallow="tram rail_urban rail rail_electric rail_fast ship container cable_car subway aircraft wheelchair scooter drone" speed="13.89" length="84.86" shape="1932.72,1014.44 1875.81,1013.72 1856.00,1018.40"/>
    </edge>
    <edge id="-13428134" from="122744855" to="123528119" name="Halsey Avenue" priority="3" type="highway.residential">
        <lane id="-13428134_0" index="0" disallow="tram rail_urban rail rail_electric rail_fast ship container cable_car subway aircraft wheelchair scooter drone" speed="13.89" length="175.67" shape="2465.34,1152.64 2461.75,1321.94"/>
    </edge>
    <edge id="-13437128" from="123303725" to="1923854813" name="Eisenhower Avenue" priority="3" type="highway.residential" shape="2461.99,501.87 2429.33,531.46 2422.91,538.22 2416.52,549.03 2413.08,559.41 2409.50,570.15 2406.50,585.98 2381.84,729.30">
        <lane id="-13437128_0" index="0" disallow="tram rail_urban rail rail_electric rail_fast ship container cable_car subway aircraft wheelchair scooter drone" speed="11.18" length="249.75" shape="2460.66,505.23 2430.45,532.61 2424.20,539.19 2417.98,549.70 2414.60,559.91 2411.05,570.55 2408.07,586.26 2383.96,726.42"/>
    </edge>
    <edge id="-13441329" from="12927023397" to="122560756" name="Boley Street" priority="3" type="highway.residential" shape="2227.53,1661.79 2093.51,1661.04">
        <lane id="-13441329_0" index="0" disallow="tram rail_urban rail rail_electric rail_fast ship container cable_car subway aircraft wheelchair scooter drone" speed="13.89" length="134.60" shape="2220.28,1663.35 2100.73,1662.68"/>
    </edge>
    <edge id="-13442107" from="122792367" to="123273062" name="Marshburn Avenue" priority="3" type="highway.residential">
        <lane id="-13442107_0" index="0" disallow="tram rail_urban rail rail_electric rail_fast ship container cable_car subway aircraft wheelchair scooter drone" speed="13.89" length="333.10" shape="978.09,330.30 992.94,7.53"/>
    </edge>
    <edge id="-13449584" from="123322573" to="122793625" name="Coyle Avenue" priority="3" type="highway.residential" shape="1537.32,1411.20 1477.05,1410.22 1398.61,1425.81 1319.16,1425.23">
        <lane id="-13449584_0" index="0" disallow="tram rail_urban rail rail_electric rail_fast ship container cable_car subway aircraft wheelchair scooter drone" speed="13.89" length="219.70" shape="1530.07,1412.68 1477.19,1411.82 1398.76,1427.41 1326.37,1426.88"/>
    </edge>
    <edge id="-13450207" from="732919787" to="122935210" name="Lee Avenue" priority="3" type="highway.residential" shape="704.42,1932.80 695.46,1901.74 691.87,1876.66 690.68,1853.37 691.28,1822.32 691.73,1753.63">
        <lane id="-13450207_0" index="0" disallow="tram rail_urban rail rail_electric rail_fast ship container cable_car subway aircraft wheelchair scooter drone" speed="13.89" length="180.73" shape="702.88,1933.24 693.89,1902.08 690.28,1876.81 689.08,1853.40 689.68,1822.30 690.08,1760.84"/>
    </edge>
    <edge id="-13450213" from="122966110" to="123679408" name="Lee Avenue" priority="3" type="highway.residential" shape="741.24,579.48 740.44,640.54 729.94,692.84 723.29,1101.52 707.65,1137.67 706.43,1287.94 706.34,1298.64">
        <lane id="-13450213_0" index="0" disallow="tram rail_urban rail rail_electric rail_fast ship container cable_car subway aircraft wheelchair scooter drone" speed="13.89" length="723.51" shape="742.80,582.69 742.04,640.71 731.54,693.01 724.88,1101.86 709.25,1138.01 708.03,1287.95 708.00,1291.42"/>
    </edge>
    <edge id="-13452845" from="123696107" to="123322580" name="Flamingo Way" priority="3" type="highway.residential" shape="1614.57,1011.18 1554.89,1009.05 1543.56,1008.91">
        <lane id="-13452845_0" index="0" disallow="tram rail_urban rail rail_electric rail_fast ship container cable_car subway aircraft wheelchair scooter drone" speed="13.89" length="71.05" shape="1614.51,1012.78 1554.85,1010.65 1550.77,1010.60"/>
    </edge>
    <edge id="-13456977" from="122722722" to="123293222" name="East Woodruff Avenue" priority="3" type="highway.residential" shape="455.33,659.20 444.62,656.27 340.62,653.77">
        <lane id="-13456977_0" index="0" disallow="tram rail_urban rail rail_electric rail_fast ship container cable_car subway aircraft wheelchair scooter drone" speed="13.89" length="115.13" shape="453.36,660.32 444.39,657.86 347.82,655.54"/>
    </edge>
    <edge id="-13457796" from="7875351570" to="12927023406" name="West Las Flores Avenue" priority="3" type="highway.residential" shape="54.79,1543.25 141.89,1544.34">
        <lane id="-13457796_0" index="0" disallow="tram rail_urban rail rail_electric rail_fast ship container cable_car subway aircraft wheelchair scooter drone" speed="13.89" length="95.62" shape="54.81,1541.65 134.71,1542.65"/>
    </edge>
    <edge id="-13461550" from="123629627" to="122721042" name="Daneswood Drive" priority="3" type="highway.residential" shape="870.80,209.33 790.18,204.78 735.32,199.26 626.93,180.49 375.74,136.59">
        <lane id="-13461550_0" index="0" disallow="tram rail_urban rail rail_electric rail_fast ship container cable_car subway aircraft wheelchair scooter drone" speed="13.89" length="500.89" shape="863.48,210.52 790.05,206.38 735.10,200.85 626.66,182.07 382.55,139.40"/>
    </edge>
    <edge id="-13461772" from="123373322" to="122560753" name="East Boley Street" priority="3" type="highway.residential" shape="2009.63,1684.27 2022.50,1696.16 2088.24,1698.28">
        <lane id="-13461772_0" index="0" disallow="tram rail_urban rail rail_electric rail_fast ship container cable_car subway aircraft wheelchair scooter drone" speed="13.89" length="83.30" shape="2011.48,1683.80 2023.15,1694.58 2080.78,1696.44"/>
    </edge>
    <edge id="-1355191046" from="123315083" to="123347800" name="Longden Avenue" priority="10" type="highway.tertiary" shape="1878.95,1317.12 1860.89,1316.81 1845.64,1316.55 1837.90,1316.42 1798.80,1315.54">
        <lane id="-1355191046_0" index="0" disallow="tram rail_urban rail rail_electric rail_fast ship container cable_car subway aircraft wheelchair scooter drone" speed="13.41" length="80.17" shape="1871.18,1318.59 1860.86,1318.41 1845.61,1318.15 1837.87,1318.02 1805.98,1317.30"/>
    </edge>
    <edge id="-182043873" from="605182110" to="1923921181" name="Kristi Court" priority="3" type="highway.residential" shape="274.32,231.58 280.28,202.50 279.33,193.23 273.73,185.89 260.60,183.20 229.84,176.35">
        <lane id="-182043873_0" index="0" disallow="tram rail_urban rail rail_electric rail_fast ship container cable_car subway aircraft wheelchair scooter drone" speed="13.89" length="93.15" shape="272.75,231.26 278.66,202.42 277.78,193.84 272.82,187.34 260.27,184.76 236.62,179.50"/>
    </edge>
    <edge id="-405337819" from="123285305" to="8460360126" name="Live Oak Avenue" priority="12" type="highway.primary" shape="1944.18,679.57 1879.12,667.59 1872.97,666.54">
        <lane id="-405337819_0" index="0" disallow="tram rail_urban rail rail_electric rail_fast ship container cable_car subway aircraft wheelchair scooter drone" speed="20.12" length="72.39" shape="1934.54,682.68 1878.26,672.31 1872.31,671.30"/>
        <lane id="-405337819_1" index="1" disallow="tram rail_urban rail rail_electric rail_fast ship container cable_car subway aircraft wheelchair scooter drone" speed="20.12" length="72.39" shape="1935.12,679.53 1878.83,669.16 1872.85,668.14"/>
    </edge>
    <edge id="-405337844" from="123094389" to="123285305" name="Live Oak Avenue" priority="12" type="highway.primary" shape="2069.94,700.62 1995.32,687.62 1944.18,679.57">
        <lane id="-405337844_0" index="0" disallow="tram rail_urban rail rail_electric rail_fast ship container cable_car subway aircraft wheelchair scooter drone" speed="20.12" length="127.51" shape="2062.30,704.16 1994.53,692.36 1952.08,685.67"/>
        <lane id="-405337844_1" index="1" disallow="tram rail_urban rail rail_electric rail_fast ship container cable_car subway aircraft wheelchair scooter drone" speed="20.12" length="127.51" shape="2062.85,701.01 1995.06,689.20 1952.57,682.51"/>
    </edge>
    <edge id="1012376671" from="12927023409" to="7465198002" name="Live Oak Avenue" priority="12" type="highway.primary" spreadType="center" shape="1662.03,622.45 1715.38,631.80 1718.21,632.43 1745.04,637.31 1798.14,650.69">
        <lane id="1012376671_0" index="0" disallow="tram rail_urban rail rail_electric rail_fast ship container cable_car subway aircraft wheelchair scooter drone" speed="20.12" length="144.12" shape="1662.31,620.87 1715.69,630.23 1718.53,630.86 1745.38,635.75 1791.11,647.27"/>
        <lane id="1012376671_1" index="1" disallow="tram rail_urban rail rail_electric rail_fast ship container cable_car subway aircraft wheelchair scooter drone" speed="20.12" length="144.12" shape="1661.75,624.03 1715.07,633.37 1717.89,634.00 1744.70,638.87 1790.67,650.46"/>
    </edge>
    <edge id="1013754695" from="12927023386" to="4075433703" name="Live Oak Avenue" priority="12" type="highway.primary" spreadType="center" shape="1465.50,588.40 1524.43,598.76">
        <lane id="1013754695_0" index="0" disallow="tram rail_urban rail rail_electric rail_fast ship container cable_car subway aircraft wheelchair scooter drone" speed="20.12" length="62.40" shape="1472.85,588.07 1520.77,596.49"/>
        <lane id="1013754695_1" index="1" disallow="tram rail_urban rail rail_electric rail_fast ship container cable_car subway aircraft wheelchair scooter drone" speed="20.12" length="62.40" shape="1472.30,591.22 1520.21,599.64"/>
    </edge>
    <edge id="1036524940" from="605187940" to="605187929" name="Las Tunas Drive" priority="12" type="highway.primary" spreadType="center" shape="22.34,353.51 43.35,348.99 55.33,347.93 64.65,347.11 90.83,350.13">
        <lane id="1036524940_0" index="0" disallow="tram rail_urban rail rail_electric rail_fast ship container cable_car subway aircraft wheelchair scooter drone" speed="17.88" length="69.23" shape="22.00,351.95 43.11,347.40 55.19,346.34 64.67,345.50 86.98,348.08"/>
        <lane id="1036524940_1" index="1" disallow="tram rail_urban rail rail_electric rail_fast ship container cable_car subway aircraft wheelchair scooter drone" speed="17.88" length="69.23" shape="22.68,355.07 43.59,350.58 55.47,349.52 64.63,348.72 86.61,351.25"/>
    </edge>
    <edge id="1051037174" from="12927023383" to="11796342107" priority="7" type="highway.primary_link" spreadType="center" shape="51.41,369.84 45.66,365.66 35.39,363.67 7.30,370.89 4.56,371.04">
        <lane id="1051037174_0" index="0" disallow="tram rail_urban rail rail_electric rail_fast ship container cable_car subway aircraft wheelchair scooter drone" speed="22.22" length="46.89" shape="41.29,366.44 35.44,365.31 7.55,372.48 4.65,372.64"/>
        <lane id="1051037174_1" index="1" disallow="tram rail_urban rail rail_electric rail_fast ship container cable_car subway aircraft wheelchair scooter drone" speed="22.22" length="46.89" shape="43.29,363.57 35.34,362.03 7.05,369.30 4.47,369.44"/>
    </edge>
    <edge id="13279077" from="122560789" to="122560793" name="Doolittle Avenue" priority="3" type="highway.residential" shape="2131.78,1320.59 2131.88,1313.76 2138.32,845.16">
        <lane id="13279077_0" index="0" disallow="tram rail_urban rail rail_electric rail_fast ship container cable_car subway aircraft wheelchair scooter drone" speed="13.89" length="475.47" shape="2130.29,1313.37 2136.61,852.88"/>
    </edge>
    <edge id="13293201" from="122651092" to="122651096" name="Beverly Drive" priority="3" type="highway.residential" shape="1542.03,1103.75 1646.94,1104.81 1646.74,1173.03">
        <lane id="13293201_0" index="0" disallow="tram rail_urban rail rail_electric rail_fast ship container cable_car subway aircraft wheelchair scooter drone" speed="13.89" length="173.14" shape="1549.27,1102.22 1648.54,1103.23 1648.34,1173.03"/>
    </edge>
    <edge id="13297781" from="122682840" to="122682842" name="Danbury Street" priority="3" type="highway.residential">
        <lane id="13297781_0" index="0" disallow="tram rail_urban rail rail_electric rail_fast ship container cable_car subway aircraft wheelchair scooter drone" speed="13.89" length="486.91" shape="398.72,22.88 872.96,102.61"/>
    </edge>