<?xml version="1.0" encoding="UTF-8"?>

<!-- generated on 2025-06-22 23:42:51.771106 by osmWebWizard.py UNKNOWN
<configuration>
    <net-file value="/Users/nedasarbalavandeymir/Sumo/2025-06-22-23-41-46/osm.net.xml.gz"/>
    <output-trip-file value="/Users/nedasarbalavandeymir/Sumo/2025-06-22-23-41-46/osm.passenger.trips.xml"/>
    <route-file value="/Users/nedasarbalavandeymir/Sumo/2025-06-22-23-41-46/osm.passenger.rou.xml"/>
    <prefix value="veh"/>
    <trip-attributes value="departLane=&quot;best&quot;"/>
    <fringe-start-attributes value="departSpeed=&quot;max&quot;"/>
    <vehicle-class value="passenger"/>
    <lanes value="True"/>
    <fringe-factor value="5"/>
    <allow-fringe.min-length value="1000.0"/>
    <via-edge-types value="highway.motorway,highway.motorway_link,highway.trunk_link,highway.primary_link,highway.secondary_link,highway.tertiary_link"/>
    <min-distance value="300.0"/>
    <min-distance.fringe value="10.0"/>
    <remove-loops value="True"/>
    <validate value="True"/>
    <insertion-density value="12.0"/>
</configuration>
-->

<!-- generated on 2025-06-22 23:42:50 by Eclipse SUMO duarouter Version 1.22.0
<duarouterConfiguration xmlns:xsi="http://www.w3.org/2001/XMLSchema-instance" xsi:noNamespaceSchemaLocation="http://sumo.dlr.de/xsd/duarouterConfiguration.xsd">

    <input>
        <net-file value="/Users/nedasarbalavandeymir/Sumo/2025-06-22-23-41-46/osm.net.xml.gz"/>
        <route-files value="/Users/nedasarbalavandeymir/Sumo/2025-06-22-23-41-46/osm.passenger.trips.xml"/>
    </input>

    <output>
        <output-file value="/Users/nedasarbalavandeymir/Sumo/2025-06-22-23-41-46/osm.passenger.trips.xml.tmp"/>
        <alternatives-output value="NUL"/>
        <write-trips value="true"/>
    </output>

    <processing>
        <remove-loops value="true"/>
    </processing>

    <time>
        <begin value="0.0"/>
        <end value="3600.0"/>
    </time>

    <report>
        <no-warnings value="true"/>
        <ignore-errors value="true"/>
        <no-step-log value="true"/>
    </report>

</duarouterConfiguration>
-->

<routes xmlns:xsi="http://www.w3.org/2001/XMLSchema-instance" xsi:noNamespaceSchemaLocation="http://sumo.dlr.de/xsd/routes_file.xsd">
    <vType id="veh_passenger" vClass="passenger"/>
    <trip id="veh0" type="veh_passenger" depart="0.00" departLane="best" from="13461550" to="-1148152677#10"/>
    <trip id="veh1" type="veh_passenger" depart="0.80" departLane="best" from="-401273822#1" to="-13465288#0"/>
    <trip id="veh2" type="veh_passenger" depart="1.60" departLane="best" from="401273098#4" to="-181425652#13"/>
    <trip id="veh3" type="veh_passenger" depart="2.40" departLane="best" from="405493043#1" to="-13315040#3"/>
    <trip id="veh4" type="veh_passenger" depart="3.20" departLane="best" from="-1074212418#1" to="-1148156395#2"/>
    <trip id="veh5" type="veh_passenger" depart="4.01" departLane="best" from="13469511#8" to="-13312602#5"/>
    <trip id="veh6" type="veh_passenger" depart="4.81" departLane="best" from="-1148156394#8" to="-13444308#0"/>
    <trip id="veh7" type="veh_passenger" depart="5.61" departLane="best" departSpeed="max" from="13469408#0" to="13360501#1"/>
    <trip id="veh8" type="veh_passenger" depart="6.41" departLane="best" from="-13470630#2" to="13401580#9"/>
    <trip id="veh9" type="veh_passenger" depart="7.21" departLane="best" from="405327114" to="-1036527250#1"/>
    <trip id="veh10" type="veh_passenger" depart="8.01" departLane="best" from="405327107" to="-25003162#3"/>
    <trip id="veh11" type="veh_passenger" depart="8.81" departLane="best" from="-44546435#7" to="-13394669"/>
    <trip id="veh12" type="veh_passenger" depart="9.61" departLane="best" from="687300875#2" to="405330563"/>
    <trip id="veh13" type="veh_passenger" depart="10.41" departLane="best" from="13335192#5" to="-13318232#0"/>
    <trip id="veh14" type="veh_passenger" depart="11.21" departLane="best" from="405336648" to="13422164#4"/>
    <trip id="veh15" type="veh_passenger" depart="12.02" departLane="best" from="405327112" to="400823777#2"/>
    <trip id="veh16" type="veh_passenger" depart="12.82" departLane="best" from="-72157799#0" to="723813468"/>
    <trip id="veh17" type="veh_passenger" depart="13.62" departLane="best" from="-764132244" to="13373627"/>
    <trip id="veh18" type="veh_passenger" depart="14.42" departLane="best" from="405327167#1" to="13435426#2"/>
    <trip id="veh19" type="veh_passenger" depart="15.22" departLane="best" from="405337818#0" to="13388801#3"/>
    <trip id="veh20" type="veh_passenger" depart="16.02" departLane="best" from="308459798" to="-1306030118#1"/>
    <trip id="veh21" type="veh_passenger" depart="16.82" departLane="best" from="-1352713248#1" to="-401273822#1"/>
    <trip id="veh22" type="veh_passenger" depart="17.62" departLane="best" from="-13317075#21" to="-13470630#6"/>
    <trip id="veh23" type="veh_passenger" depart="18.42" departLane="best" from="-13345105#9" to="-38851198#1"/>
    <trip id="veh24" type="veh_passenger" depart="19.23" departLane="best" from="13460181#3" to="-471004387"/>
    <trip id="veh25" type="veh_passenger" depart="20.03" departLane="best" from="-693134371#4" to="13452420#3"/>
    <trip id="veh26" type="veh_passenger" depart="20.83" departLane="best" from="-399550744#0" to="46968328#4"/>
    <trip id="veh27" type="veh_passenger" depart="21.63" departLane="best" from="13466788#4" to="13425459#1"/>
    <trip id="veh28" type="veh_passenger" depart="22.43" departLane="best" from="-13426101#13" to="400823777#0"/>
    <trip id="veh29" type="veh_passenger" depart="23.23" departLane="best" from="-13422164#2" to="-648979728"/>
    <trip id="veh30" type="veh_passenger" depart="24.03" departLane="best" departSpeed="max" from="950292078" to="13454936#1"/>
    <trip id="veh31" type="veh_passenger" depart="24.83" departLane="best" from="-13381891#9" to="182050924#2"/>
    <trip id="veh32" type="veh_passenger" depart="25.63" departLane="best" from="405336638#3" to="889471572#0"/>
    <trip id="veh33" type="veh_passenger" depart="26.43" departLane="best" from="1365257229#0" to="-1148156396#3"/>
    <trip id="veh34" type="veh_passenger" depart="27.24" departLane="best" from="-405330526#0" to="-28900337"/>
    <trip id="veh36" type="veh_passenger" depart="28.84" departLane="best" from="405337875#1" to="-405325379"/>
    <trip id="veh37" type="veh_passenger" depart="29.64" departLane="best" from="-13470640#1" to="-766186252#4"/>
    <trip id="veh38" type="veh_passenger" depart="30.44" departLane="best" from="405493030#0" to="-1148388510#0"/>
    <trip id="veh39" type="veh_passenger" depart="31.24" departLane="best" from="-38938680#1" to="181425667#1"/>
    <trip id="veh40" type="veh_passenger" depart="32.04" departLane="best" from="13385658#4" to="-28312110#20"/>
    <trip id="veh41" type="veh_passenger" depart="32.84" departLane="best" departSpeed="max" from="13402588" to="405493073#3"/>
    <trip id="veh42" type="veh_passenger" depart="33.64" departLane="best" from="1036498467#16" to="-13463788#11"/>
    <trip id="veh43" type="veh_passenger" depart="34.44" departLane="best" from="976212202#1" to="13315403#2"/>
    <trip id="veh44" type="veh_passenger" depart="35.25" departLane="best" from="13330404#1" to="13278789#3"/>
    <trip id="veh45" type="veh_passenger" depart="36.05" departLane="best" departSpeed="max" from="-13360500" to="13446852#0"/>
    <trip id="veh46" type="veh_passenger" depart="36.85" departLane="best" from="-405325398" to="1036530140#1"/>
    <trip id="veh47" type="veh_passenger" depart="37.65" departLane="best" departSpeed="max" from="-13304481" to="-692908076#0"/>
    <trip id="veh48" type="veh_passenger" depart="38.45" departLane="best" from="976212199#4" to="13342425"/>
    <trip id="veh49" type="veh_passenger" depart="39.25" departLane="best" departSpeed="max" from="739365808" to="405336661#4"/>
    <trip id="veh50" type="veh_passenger" depart="40.05" departLane="best" from="-106343170#7" to="399541084#0"/>
    <trip id="veh51" type="veh_passenger" depart="40.85" departLane="best" from="-24706044#5" to="13350101#2"/>
    <trip id="veh52" type="veh_passenger" depart="41.65" departLane="best" from="-399542189" to="13455078#2"/>
    <trip id="veh53" type="veh_passenger" depart="42.46" departLane="best" departSpeed="max" from="-13361169" to="-1074212418#1"/>
    <trip id="veh54" type="veh_passenger" depart="43.26" departLane="best" from="-1250886419#0" to="599524901#5"/>
    <trip id="veh55" type="veh_passenger" depart="44.06" departLane="best" from="405337875#0" to="-28312110#5"/>
    <trip id="veh56" type="veh_passenger" depart="44.86" departLane="best" departSpeed="max" from="13314264" to="13422482#8"/>
    <trip id="veh57" type="veh_passenger" depart="45.66" departLane="best" from="406486604#0" to="405337862#3"/>
    <trip id="veh58" type="veh_passenger" depart="46.46" departLane="best" from="405324348#0" to="13454932#4"/>
    <trip id="veh59" type="veh_passenger" depart="47.26" departLane="best" from="13435317#3" to="-13392368"/>
    <trip id="veh60" type="veh_passenger" depart="48.06" departLane="best" from="401279531#0" to="13355891#0"/>
    <trip id="veh61" type="veh_passenger" depart="48.86" departLane="best" departSpeed="max" from="405324334" to="-13345105#11"/>
    <trip id="veh62" type="veh_passenger" depart="49.66" departLane="best" from="1036492888" to="-405325443#0"/>
    <trip id="veh63" type="veh_passenger" depart="50.47" departLane="best" from="-1148149225#0" to="45477672#1"/>
    <trip id="veh64" type="veh_passenger" depart="51.27" departLane="best" from="405337878#0" to="405327166#1"/>
    <trip id="veh65" type="veh_passenger" depart="52.07" departLane="best" from="405325434#0" to="-13292674#2"/>
    <trip id="veh66" type="veh_passenger" depart="52.87" departLane="best" from="405337876#1" to="59028911#7"/>
    <trip id="veh67" type="veh_passenger" depart="53.67" departLane="best" from="-13326393#3" to="13293822#5"/>
    <trip id="veh68" type="veh_passenger" depart="54.47" departLane="best" from="13308855#0" to="401279511"/>
    <trip id="veh69" type="veh_passenger" depart="55.27" departLane="best" from="401280477#1" to="-13367497#3"/>
    <trip id="veh70" type="veh_passenger" depart="56.07" departLane="best" from="13293822#4" to="13367497#0"/>
    <trip id="veh71" type="veh_passenger" depart="56.87" departLane="best" from="-390810268" to="405337865#2"/>
    <trip id="veh72" type="veh_passenger" depart="57.68" departLane="best" from="1083115312" to="13455078#1"/>
    <trip id="veh73" type="veh_passenger" depart="58.48" departLane="best" departSpeed="max" from="13360499" to="400823777#3"/>
    <trip id="veh74" type="veh_passenger" depart="59.28" departLane="best" departSpeed="max" from="-13458550#1" to="-405324343#0"/>
    <trip id="veh75" type="veh_passenger" depart="60.08" departLane="best" departSpeed="max" from="970303884" to="13463788#18"/>
    <trip id="veh76" type="veh_passenger" depart="60.88" departLane="best" from="1148156394#6" to="13326177#5"/>
    <trip id="veh77" type="veh_passenger" depart="61.68" departLane="best" from="-13374305#2" to="-13465288#8"/>
    <trip id="veh78" type="veh_passenger" depart="62.48" departLane="best" from="-44546435#10" to="13401580#4"/>
    <trip id="veh79" type="veh_passenger" depart="63.28" departLane="best" from="-1371026529#2" to="-13463788#2"/>
    <trip id="veh80" type="veh_passenger" depart="64.08" departLane="best" from="-13312266#4" to="-13448848#0"/>
    <trip id="veh81" type="veh_passenger" depart="64.88" departLane="best" from="-1365257229#0" to="405497686"/>
    <trip id="veh82" type="veh_passenger" depart="65.69" departLane="best" from="405336664#3" to="-13303064#4"/>
    <trip id="veh83" type="veh_passenger" depart="66.49" departLane="best" from="-182050924#14" to="1352713247#2"/>
    <trip id="veh84" type="veh_passenger" depart="67.29" departLane="best" from="-13466331#0" to="-13377751#0"/>
    <trip id="veh85" type="veh_passenger" depart="68.09" departLane="best" from="47529228#4" to="13382798"/>
    <trip id="veh86" type="veh_passenger" depart="68.89" departLane="best" from="13292508#6" to="-59034260#0"/>
    <trip id="veh87" type="veh_passenger" depart="69.69" departLane="best" from="405327113#0" to="-13435428#0"/>
    <trip id="veh88" type="veh_passenger" depart="70.49" departLane="best" from="-13345105#12" to="-106343170#5"/>
    <trip id="veh89" type="veh_passenger" depart="71.29" departLane="best" from="1094481473" to="124165067"/>
    <trip id="veh90" type="veh_passenger" depart="72.09" departLane="best" from="-400823791#1" to="181425638#0"/>
    <trip id="veh91" type="veh_passenger" depart="72.90" departLane="best" from="900615017#10" to="-13326177#0"/>
    <trip id="veh92" type="veh_passenger" depart="73.70" departLane="best" from="1036524940" to="-405492994"/>
    <trip id="veh93" type="veh_passenger" depart="74.50" departLane="best" from="405336664#4" to="182050924#17"/>
    <trip id="veh94" type="veh_passenger" depart="75.30" departLane="best" from="-13446917#5" to="1148152677#9"/>
    <trip id="veh95" type="veh_passenger" depart="76.10" departLane="best" from="1074212418#1" to="-38852017"/>
    <trip id="veh96" type="veh_passenger" depart="76.90" departLane="best" from="-25003162#8" to="44546435#0"/>
    <trip id="veh97" type="veh_passenger" depart="77.70" departLane="best" from="1148156396#8" to="405336658#0"/>
    <trip id="veh98" type="veh_passenger" depart="78.50" departLane="best" from="-13378469#2" to="13288471"/>
    <trip id="veh99" type="veh_passenger" depart="79.30" departLane="best" from="976576366#1" to="405328877#0"/>
    <trip id="veh100" type="veh_passenger" depart="80.10" departLane="best" from="729957705" to="44546435#9"/>
    <trip id="veh101" type="veh_passenger" depart="80.91" departLane="best" from="405336652#0" to="13401580#5"/>
    <trip id="veh102" type="veh_passenger" depart="81.71" departLane="best" from="13303064#1" to="-13460181#13"/>
    <trip id="veh103" type="veh_passenger" depart="82.51" departLane="best" from="1036498467#26" to="-13292675"/>
    <trip id="veh104" type="veh_passenger" depart="83.31" departLane="best" from="-764132244" to="844176767"/>
    <trip id="veh105" type="veh_passenger" depart="84.11" departLane="best" from="-390810271#0" to="485453805#0"/>
    <trip id="veh106" type="veh_passenger" depart="84.91" departLane="best" from="-1250886419#8" to="-1036711155#1"/>
    <trip id="veh108" type="veh_passenger" depart="86.51" departLane="best" from="13381891#14" to="-359618003#1"/>
    <trip id="veh109" type="veh_passenger" depart="87.31" departLane="best" departSpeed="max" from="-13401621" to="-401276171#0"/>
    <trip id="veh110" type="veh_passenger" depart="88.11" departLane="best" from="729957705" to="13394376#2"/>
    <trip id="veh111" type="veh_passenger" depart="88.92" departLane="best" from="13363721#0" to="401276117#3"/>
    <trip id="veh112" type="veh_passenger" depart="89.72" departLane="best" from="-13297309#3" to="-13399177#10"/>
    <trip id="veh113" type="veh_passenger" depart="90.52" departLane="best" from="13315403#1" to="405336638#1"/>
    <trip id="veh114" type="veh_passenger" depart="91.32" departLane="best" departSpeed="max" from="-13406204#1" to="648979716#1"/>
    <trip id="veh115" type="veh_passenger" depart="92.12" departLane="best" from="-13317075#3" to="-13433114#3"/>
    <trip id="veh116" type="veh_passenger" depart="92.92" departLane="best" from="13422164#14" to="181425651#5"/>
    <trip id="veh117" type="veh_passenger" depart="93.72" departLane="best" from="181425664#0" to="13355196#2"/>
    <trip id="veh118" type="veh_passenger" depart="94.52" departLane="best" from="405493034" to="-181425664#0"/>
    <trip id="veh119" type="veh_passenger" depart="95.32" departLane="best" from="13422164#11" to="13437907"/>
    <trip id="veh120" type="veh_passenger" depart="96.13" departLane="best" departSpeed="max" from="13335192#0" to="466743678"/>
    <trip id="veh121" type="veh_passenger" depart="96.93" departLane="best" from="-13460666#0" to="353279688#1"/>
    <trip id="veh122" type="veh_passenger" depart="97.73" departLane="best" from="-182050924#18" to="-766186252#4"/>
    <trip id="veh124" type="veh_passenger" depart="99.33" departLane="best" from="-405330528" to="401276160"/>
    <trip id="veh125" type="veh_passenger" depart="100.13" departLane="best" from="13312602#7" to="39497547#0"/>
    <trip id="veh126" type="veh_passenger" depart="100.93" departLane="best" from="976576365#3" to="976212199#2"/>
    <trip id="veh127" type="veh_passenger" depart="101.73" departLane="best" departSpeed="max" from="-13312605" to="-13460181#0"/>
    <trip id="veh128" type="veh_passenger" depart="102.53" departLane="best" from="-390810271#0" to="-45481512#0"/>
    <trip id="veh129" type="veh_passenger" depart="103.33" departLane="best" from="-405492967" to="405337876#0"/>
    <trip id="veh130" type="veh_passenger" depart="104.14" departLane="best" from="-693134371#21" to="-13395499#3"/>
    <trip id="veh131" type="veh_passenger" depart="104.94" departLane="best" from="405328877#0" to="-28312137#0"/>
    <trip id="veh132" type="veh_passenger" depart="105.74" departLane="best" from="13435428#1" to="889471571#0"/>
    <trip id="veh133" type="veh_passenger" depart="106.54" departLane="best" from="13470630#4" to="1036711155#0"/>
    <trip id="veh134" type="veh_passenger" depart="107.34" departLane="best" from="405327138#0" to="-401276176#2"/>
    <trip id="veh135" type="veh_passenger" depart="108.14" departLane="best" from="1371026529#0" to="-46994950#8"/>
    <trip id="veh136" type="veh_passenger" depart="108.94" departLane="best" from="-13382702#2" to="13345105#6"/>
    <trip id="veh137" type="veh_passenger" depart="109.74" departLane="best" departSpeed="max" from="-13355900" to="13373929"/>
    <trip id="veh138" type="veh_passenger" depart="110.54" departLane="best" from="400823791#0" to="13422479#1"/>
    <trip id="veh139" type="veh_passenger" depart="111.35" departLane="best" from="399541855" to="-13450213"/>
    <trip id="veh140" type="veh_passenger" depart="112.15" departLane="best" from="13458550#0" to="-28312110#9"/>
    <trip id="veh141" type="veh_passenger" depart="112.95" departLane="best" from="13303529#1" to="405497686"/>
    <trip id="veh142" type="veh_passenger" depart="113.75" departLane="best" from="405336644" to="-13317075#12"/>
    <trip id="veh143" type="veh_passenger" depart="114.55" departLane="best" from="1094481473" to="-359618003#0"/>
    <trip id="veh144" type="veh_passenger" depart="115.35" departLane="best" from="1036498467#26" to="401280481"/>
    <trip id="veh145" type="veh_passenger" depart="116.15" departLane="best" from="13460666#13" to="-28312110#16"/>
    <trip id="veh146" type="veh_passenger" depart="116.95" departLane="best" from="401273099#8" to="13373627"/>
    <trip id="veh147" type="veh_passenger" depart="117.75" departLane="best" from="1109613390" to="-1036711155#8"/>
    <trip id="veh148" type="veh_passenger" depart="118.55" departLane="best" from="13315040#2" to="405492967"/>
    <trip id="veh149" type="veh_passenger" depart="119.36" departLane="best" from="405497692" to="13361169"/>
    <trip id="veh150" type="veh_passenger" depart="120.16" departLane="best" from="405328878" to="13396168#1"/>
    <trip id="veh151" type="veh_passenger" depart="120.96" departLane="best" departSpeed="max" from="-13396168#1" to="-13367496#0"/>
    <trip id="veh152" type="veh_passenger" depart="121.76" departLane="best" from="-405325438#2" to="-405493078"/>
    <trip id="veh153" type="veh_passenger" depart="122.56" departLane="best" from="-405325431#1" to="405336661#4"/>
    <trip id="veh154" type="veh_passenger" depart="123.36" departLane="best" from="405497651" to="-13453134"/>
    <trip id="veh155" type="veh_passenger" depart="124.16" departLane="best" from="-25003162#6" to="-13327955#15"/>
    <trip id="veh156" type="veh_passenger" depart="124.96" departLane="best" from="405324339#0" to="405492978#1"/>
    <trip id="veh157" type="veh_passenger" depart="125.76" departLane="best" from="405493019" to="13438094#1"/>
    <trip id="veh158" type="veh_passenger" depart="126.57" departLane="best" from="-13401580#9" to="45477673"/>
    <trip id="veh159" type="veh_passenger" depart="127.37" departLane="best" from="405337859#1" to="729957708"/>
    <trip id="veh160" type="veh_passenger" depart="128.17" departLane="best" from="72156342#1" to="405337879"/>
    <trip id="veh161" type="veh_passenger" depart="128.97" departLane="best" from="-1148152678#5" to="401273097#1"/>
    <trip id="veh162" type="veh_passenger" depart="129.77" departLane="best" from="-406486602#11" to="-45481507#0"/>
    <trip id="veh163" type="veh_passenger" depart="130.57" departLane="best" from="405327099" to="405337818#0"/>
    <trip id="veh164" type="veh_passenger" depart="131.37" departLane="best" from="72156342#1" to="-28312243#0"/>
    <trip id="veh165" type="veh_passenger" depart="132.17" departLane="best" from="405324350#0" to="-13335192#4"/>
    <trip id="veh166" type="veh_passenger" depart="132.97" departLane="best" from="405337867#0" to="405336659#1"/>
    <trip id="veh167" type="veh_passenger" depart="133.77" departLane="best" from="-13470640#3" to="405327132#0"/>
    <trip id="veh168" type="veh_passenger" depart="134.58" departLane="best" from="-1306030118#1" to="-401280477#0"/>
    <trip id="veh169" type="veh_passenger" depart="135.38" departLane="best" from="-405325429" to="-13469104#0"/>
    <trip id="veh170" type="veh_passenger" depart="136.18" departLane="best" from="-1148152677#8" to="-13438850#0"/>
    <trip id="veh171" type="veh_passenger" depart="136.98" departLane="best" from="-405493075" to="182043865#0"/>
    <trip id="veh172" type="veh_passenger" depart="137.78" departLane="best" from="723813468" to="38938680#1"/>
    <trip id="veh173" type="veh_passenger" depart="138.58" departLane="best" from="13463788#16" to="900615017#10"/>
    <trip id="veh174" type="veh_passenger" depart="139.38" departLane="best" from="889471569" to="13350024#3"/>
    <trip id="veh175" type="veh_passenger" depart="140.18" departLane="best" from="538392005" to="13345105#5"/>
    <trip id="veh176" type="veh_passenger" depart="140.98" departLane="best" from="729957709#1" to="-13422482#8"/>
    <trip id="veh177" type="veh_passenger" depart="141.78" departLane="best" from="719920981" to="-28312137#5"/>
    <trip id="veh178" type="veh_passenger" depart="142.59" departLane="best" departSpeed="max" from="-13357583#8" to="1074212418#1"/>
    <trip id="veh179" type="veh_passenger" depart="143.39" departLane="best" from="400823791#0" to="405324349#4"/>
    <trip id="veh180" type="veh_passenger" depart="144.19" departLane="best" from="13433114#2" to="13317075#12"/>
    <trip id="veh181" type="veh_passenger" depart="144.99" departLane="best" from="-900615017#10" to="13387037#1"/>
    <trip id="veh182" type="veh_passenger" depart="145.79" departLane="best" from="-28312137#12" to="28312243#4"/>
    <trip id="veh183" type="veh_passenger" depart="146.59" departLane="best" from="-1036498467#15" to="44546435#6"/>
    <trip id="veh184" type="veh_passenger" depart="147.39" departLane="best" from="-13357583#7" to="38938680#1"/>
    <trip id="veh185" type="veh_passenger" depart="148.19" departLane="best" from="-401273819#1" to="-1365257229#0"/>
    <trip id="veh186" type="veh_passenger" depart="148.99" departLane="best" from="-648979728" to="-13303064#0"/>
    <trip id="veh187" type="veh_passenger" depart="149.80" departLane="best" from="1386035348" to="405330522#0"/>
    <trip id="veh188" type="veh_passenger" depart="150.60" departLane="best" from="-405328877#1" to="405336642"/>
    <trip id="veh189" type="veh_passenger" depart="151.40" departLane="best" from="399543248" to="401276177#1"/>
    <trip id="veh190" type="veh_passenger" depart="152.20" departLane="best" from="-405325441#1" to="405497704#0"/>
    <trip id="veh191" type="veh_passenger" depart="153.00" departLane="best" from="405327100" to="-401276166#1"/>
    <trip id="veh192" type="veh_passenger" depart="153.80" departLane="best" from="-13378469#6" to="1036527250#2"/>
    <trip id="veh193" type="veh_passenger" depart="154.60" departLane="best" departSpeed="max" from="578424250" to="-181425652#18"/>
    <trip id="veh194" type="veh_passenger" depart="155.40" departLane="best" from="405497682#2" to="13434840#2"/>
    <trip id="veh195" type="veh_passenger" depart="156.20" departLane="best" from="-405325380" to="13363721#0"/>
    <trip id="veh196" type="veh_passenger" depart="157.00" departLane="best" from="-1036484845" to="400823791#0"/>
    <trip id="veh197" type="veh_passenger" depart="157.81" departLane="best" from="1148149223#1" to="13394378#2"/>
    <trip id="veh198" type="veh_passenger" depart="158.61" departLane="best" from="-13470630#9" to="124165067"/>
    <trip id="veh199" type="veh_passenger" depart="159.41" departLane="best" from="1148156396#5" to="-13460181#12"/>
    <trip id="veh200" type="veh_passenger" depart="160.21" departLane="best" from="-13292672" to="405497651"/>
    <trip id="veh201" type="veh_passenger" depart="161.01" departLane="best" from="-405325431#1" to="-13405976#0"/>
    <trip id="veh202" type="veh_passenger" depart="161.81" departLane="best" from="-13326393#1" to="13318196#6"/>
    <trip id="veh203" type="veh_passenger" depart="162.61" departLane="best" from="13454936#3" to="405330559#5"/>
    <trip id="veh204" type="veh_passenger" depart="163.41" departLane="best" from="405327139#0" to="-401276147#1"/>
    <trip id="veh205" type="veh_passenger" depart="164.21" departLane="best" from="181425674#0" to="-13465288#8"/>
    <trip id="veh206" type="veh_passenger" depart="165.02" departLane="best" from="25003116" to="13278771#2"/>
    <trip id="veh207" type="veh_passenger" depart="165.82" departLane="best" from="405336653#0" to="-13303527#1"/>
    <trip id="veh209" type="veh_passenger" depart="167.42" departLane="best" from="-13451299#15" to="25003162#18"/>
    <trip id="veh210" type="veh_passenger" depart="168.22" departLane="best" from="13307402#7" to="-181425652#1"/>
    <trip id="veh211" type="veh_passenger" depart="169.02" departLane="best" from="13470930#1" to="1036498467#5"/>
    <trip id="veh212" type="veh_passenger" depart="169.82" departLane="best" from="-401276171#0" to="401280480#0"/>
    <trip id="veh213" type="veh_passenger" depart="170.62" departLane="best" departSpeed="max" from="-13355900" to="1043712198"/>
    <trip id="veh214" type="veh_passenger" depart="171.42" departLane="best" from="-13435316#2" to="644419555#2"/>
    <trip id="veh215" type="veh_passenger" depart="172.22" departLane="best" from="13327955#16" to="-13288346#0"/>
    <trip id="veh216" type="veh_passenger" depart="173.03" departLane="best" from="25003162#4" to="405336644"/>
    <trip id="veh217" type="veh_passenger" depart="173.83" departLane="best" from="-1270471240#5" to="405325438#2"/>
    <trip id="veh218" type="veh_passenger" depart="174.63" departLane="best" from="181425651#4" to="889471573"/>
    <trip id="veh219" type="veh_passenger" depart="175.43" departLane="best" from="13422164#4" to="59034260#4"/>
    <trip id="veh220" type="veh_passenger" depart="176.23" departLane="best" from="405493041" to="13430467#2"/>
    <trip id="veh221" type="veh_passenger" depart="177.03" departLane="best" from="399542659" to="-13312602#1"/>
    <trip id="veh222" type="veh_passenger" depart="177.83" departLane="best" from="405327169#3" to="13363721#0"/>
    <trip id="veh223" type="veh_passenger" depart="178.63" departLane="best" from="405493090" to="401273099#6"/>
    <trip id="veh224" type="veh_passenger" depart="179.43" departLane="best" from="13293818#1" to="-25003162#31"/>
    <trip id="veh225" type="veh_passenger" depart="180.24" departLane="best" from="25003162#2" to="13452420#1"/>
    <trip id="veh226" type="veh_passenger" depart="181.04" departLane="best" from="-401280477#1" to="13327955#16"/>
    <trip id="veh227" type="veh_passenger" depart="181.84" departLane="best" from="13450666#3" to="-353279688#0"/>
    <trip id="veh228" type="veh_passenger" depart="182.64" departLane="best" from="13317004#7" to="-400823780"/>
    <trip id="veh229" type="veh_passenger" depart="183.44" departLane="best" from="400823782" to="-405325420"/>
    <trip id="veh230" type="veh_passenger" depart="184.24" departLane="best" departSpeed="max" from="13360503" to="-13378893#1"/>
    <trip id="veh231" type="veh_passenger" depart="185.04" departLane="best" from="-146653502" to="25003117#1"/>
    <trip id="veh232" type="veh_passenger" depart="185.84" departLane="best" departSpeed="max" from="308459801#0" to="-13297613#0"/>
    <trip id="veh233" type="veh_passenger" depart="186.64" departLane="best" from="-1036711155#0" to="13357583#7"/>
    <trip id="veh234" type="veh_passenger" depart="187.44" departLane="best" from="106343170#0" to="-13451299#1"/>
    <trip id="veh235" type="veh_passenger" depart="188.25" departLane="best" from="1072582979#1" to="405497681"/>
    <trip id="veh236" type="veh_passenger" depart="189.05" departLane="best" departSpeed="max" from="13402588" to="25003162#13"/>
    <trip id="veh237" type="veh_passenger" depart="189.85" departLane="best" from="405336659#2" to="401279529#0"/>
    <trip id="veh238" type="veh_passenger" depart="190.65" departLane="best" from="766186252#4" to="-1036498467#7"/>
    <trip id="veh239" type="veh_passenger" depart="191.45" departLane="best" from="-555320215" to="401276168#1"/>
    <trip id="veh240" type="veh_passenger" depart="192.25" departLane="best" from="405336657#1" to="599524901#3"/>
    <trip id="veh241" type="veh_passenger" depart="193.05" departLane="best" from="106367746#4" to="401276117#2"/>
    <trip id="veh242" type="veh_passenger" depart="193.85" departLane="best" from="13376891#1" to="13422164#14"/>
    <trip id="veh243" type="veh_passenger" depart="194.65" departLane="best" from="-13470630#3" to="-13463788#12"/>