<?xml version="1.0" encoding="UTF-8"?>

<!-- generated on 2025-06-22 23:42:52.999285 by osmWebWizard.py UNKNOWN
<configuration>
    <net-file value="/Users/nedasarbalavandeymir/Sumo/2025-06-22-23-41-46/osm.net.xml.gz"/>
    <additional-files value="/Users/nedasarbalavandeymir/Sumo/2025-06-22-23-41-46/osm_stops.add.xml,/Users/nedasarbalavandeymir/Sumo/2025-06-22-23-41-46/osm_pt.rou.xml"/>
    <output-trip-file value="/Users/nedasarbalavandeymir/Sumo/2025-06-22-23-41-46/osm.pedestrian.trips.xml"/>
    <route-file value="/Users/nedasarbalavandeymir/Sumo/2025-06-22-23-41-46/osm.pedestrian.rou.xml"/>
    <persontrips value="True"/>
    <persontrip.walk-opposite-factor value="0.8"/>
    <prefix value="ped"/>
    <trip-attributes value="modes=&quot;public&quot;"/>
    <vehicle-class value="pedestrian"/>
    <fringe-factor value="1"/>
    <insertion-density value="10.0"/>
    <duarouter-weights.tls-penalty value="20"/>
</configuration>
-->

<routes xmlns:xsi="http://www.w3.org/2001/XMLSchema-instance" xsi:noNamespaceSchemaLocation="http://sumo.dlr.de/xsd/routes_file.xsd">
    <vType id="ped_pedestrian" vClass="pedestrian"/>
    <person id="ped0" depart="0.00" type="ped_pedestrian">
        <personTrip from="646632652" to="-1306897798#4" modes="public"/>
    </person>
    <person id="ped1" depart="1.36" type="ped_pedestrian">
        <personTrip from="-723779216" to="-717145404#1" modes="public"/>
    </person>
    <person id="ped2" depart="2.72" type="ped_pedestrian">
        <personTrip from="723396201" to="689966730#0" modes="public"/>
    </person>
    <person id="ped3" depart="4.07" type="ped_pedestrian">
        <personTrip from="801669561#0" to="-366209852#0" modes="public"/>
    </person>
    <person id="ped4" depart="5.43" type="ped_pedestrian">
        <personTrip from="-844935238" to="-1306897810" modes="public"/>
    </person>
    <person id="ped5" depart="6.79" type="ped_pedestrian">
        <personTrip from="-717132863" to="1306897803" modes="public"/>
    </person>
    <person id="ped6" depart="8.15" type="ped_pedestrian">
        <personTrip from="-1306897800#4" to="-715751794" modes="public"/>
    </person>
    <person id="ped7" depart="9.50" type="ped_pedestrian">
        <personTrip from="649471267#1" to="364999428#2" modes="public"/>
    </person>
    <person id="ped8" depart="10.86" type="ped_pedestrian">
        <personTrip from="-717145393" to="44555619" modes="public"/>
    </person>
    <person id="ped9" depart="12.22" type="ped_pedestrian">
        <personTrip from="729957707" to="-1074212427" modes="public"/>
    </person>
    <person id="ped10" depart="13.58" type="ped_pedestrian">
        <personTrip from="727743737" to="716680015" modes="public"/>
    </person>
    <person id="ped11" depart="14.93" type="ped_pedestrian">
        <personTrip from="-739365905" to="-647410673" modes="public"/>
    </person>
    <person id="ped12" depart="16.29" type="ped_pedestrian">
        <personTrip from="905047779" to="-739365890" modes="public"/>
    </person>
    <person id="ped13" depart="17.65" type="ped_pedestrian">
        <personTrip from="-366210568" to="-386891044#0" modes="public"/>
    </person>
    <person id="ped14" depart="19.01" type="ped_pedestrian">
        <personTrip from="758870636" to="466743674#7" modes="public"/>
    </person>
    <person id="ped15" depart="20.36" type="ped_pedestrian">
        <personTrip from="727783030#1" to="719920976#0" modes="public"/>
    </person>
    <person id="ped16" depart="21.72" type="ped_pedestrian">
        <personTrip from="364999398#1" to="911103323" modes="public"/>
    </person>
    <person id="ped17" depart="23.08" type="ped_pedestrian">
        <personTrip from="-797203591" to="365590075" modes="public"/>
    </person>
    <person id="ped18" depart="24.44" type="ped_pedestrian">
        <personTrip from="739365838" to="642075389#1" modes="public"/>
    </person>
    <person id="ped19" depart="25.79" type="ped_pedestrian">
        <personTrip from="770577531" to="386891041#0" modes="public"/>
    </person>
    <person id="ped20" depart="27.15" type="ped_pedestrian">
        <personTrip from="717049147" to="-182043872#4" modes="public"/>
    </person>
    <person id="ped21" depart="28.51" type="ped_pedestrian">
        <personTrip from="-717174023" to="-723993801" modes="public"/>
    </person>
    <person id="ped22" depart="29.87" type="ped_pedestrian">
        <personTrip from="-366175557" to="-718798050#0" modes="public"/>
    </person>
    <person id="ped23" depart="31.22" type="ped_pedestrian">
        <personTrip from="-44555607#5" to="-723782186#1" modes="public"/>
    </person>
    <person id="ped24" depart="32.58" type="ped_pedestrian">
        <personTrip from="644827903" to="-771576970#1" modes="public"/>
    </person>
    <person id="ped25" depart="33.94" type="ped_pedestrian">
        <personTrip from="-780099265" to="-716680426#0" modes="public"/>
    </person>
    <person id="ped26" depart="35.30" type="ped_pedestrian">
        <personTrip from="-723759339" to="844909923" modes="public"/>
    </person>
    <person id="ped27" depart="36.65" type="ped_pedestrian">
        <personTrip from="649097792" to="59030324#0" modes="public"/>
    </person>
    <person id="ped28" depart="38.01" type="ped_pedestrian">
        <personTrip from="-654169522" to="719920975#0" modes="public"/>
    </person>
    <person id="ped29" depart="39.37" type="ped_pedestrian">
        <personTrip from="-649609267#1" to="-797354639#1" modes="public"/>
    </person>
    <person id="ped30" depart="40.73" type="ped_pedestrian">
        <personTrip from="935855562" to="647251380" modes="public"/>
    </person>
    <person id="ped31" depart="42.08" type="ped_pedestrian">
        <personTrip from="365605962" to="715722403#3" modes="public"/>
    </person>
    <person id="ped32" depart="43.44" type="ped_pedestrian">
        <personTrip from="739365895" to="723782183" modes="public"/>
    </person>
    <person id="ped33" depart="44.80" type="ped_pedestrian">
        <personTrip from="-717182755" to="-1307647354#0" modes="public"/>
    </person>
    <person id="ped34" depart="46.16" type="ped_pedestrian">
        <personTrip from="-738991277#0" to="-723759340#2" modes="public"/>
    </person>
    <person id="ped35" depart="47.51" type="ped_pedestrian">
        <personTrip from="-716700146#0" to="844935238" modes="public"/>
    </person>
    <person id="ped36" depart="48.87" type="ped_pedestrian">
        <personTrip from="774983672" to="-738991273" modes="public"/>
    </person>
    <person id="ped37" depart="50.23" type="ped_pedestrian">
        <personTrip from="649609270#0" to="-837020455" modes="public"/>
    </person>
    <person id="ped38" depart="51.59" type="ped_pedestrian">
        <personTrip from="844126698" to="-911147782" modes="public"/>
    </person>
    <person id="ped39" depart="52.94" type="ped_pedestrian">
        <personTrip from="-723730804#2" to="-723699438#0" modes="public"/>
    </person>
    <person id="ped40" depart="54.30" type="ped_pedestrian">
        <personTrip from="366175556" to="-723720249" modes="public"/>
    </person>
    <person id="ped41" depart="55.66" type="ped_pedestrian">
        <personTrip from="44555609" to="808268839" modes="public"/>
    </person>
    <person id="ped42" depart="57.02" type="ped_pedestrian">
        <personTrip from="-844111845" to="-717133700" modes="public"/>
    </person>
    <person id="ped43" depart="58.37" type="ped_pedestrian">
        <personTrip from="959781648" to="1306897815#0" modes="public"/>
    </person>
    <person id="ped44" depart="59.73" type="ped_pedestrian">
        <personTrip from="-366210183#1" to="-211234350#2" modes="public"/>
    </person>
    <person id="ped45" depart="61.09" type="ped_pedestrian">
        <personTrip from="-448565809" to="643647914#2" modes="public"/>
    </person>
    <person id="ped46" depart="62.45" type="ped_pedestrian">
        <personTrip from="724018715#1" to="-844935239" modes="public"/>
    </person>
    <person id="ped47" depart="63.80" type="ped_pedestrian">
        <personTrip from="-364999428#0" to="-801024342" modes="public"/>
    </person>
    <person id="ped48" depart="65.16" type="ped_pedestrian">
        <personTrip from="946725606#1" to="327488953" modes="public"/>
    </person>
    <person id="ped49" depart="66.52" type="ped_pedestrian">
        <personTrip from="911081783" to="770562858#1" modes="public"/>
    </person>
    <person id="ped50" depart="67.88" type="ped_pedestrian">
        <personTrip from="-1101423188" to="717174020#3" modes="public"/>
    </person>
    <person id="ped51" depart="69.23" type="ped_pedestrian">
        <personTrip from="715712071#0" to="364999398#13" modes="public"/>
    </person>
    <person id="ped52" depart="70.59" type="ped_pedestrian">
        <personTrip from="-723759337#0" to="647251382#2" modes="public"/>
    </person>
    <person id="ped53" depart="71.95" type="ped_pedestrian">
        <personTrip from="-448568968#1" to="-905047779" modes="public"/>
    </person>
    <person id="ped54" depart="73.31" type="ped_pedestrian">
        <personTrip from="-911103868" to="904009225" modes="public"/>
    </person>
    <person id="ped55" depart="74.66" type="ped_pedestrian">
        <personTrip from="774954693#2" to="-723720254" modes="public"/>
    </person>
    <person id="ped56" depart="76.02" type="ped_pedestrian">
        <personTrip from="1306030115" to="-686402207#0" modes="public"/>
    </person>
    <person id="ped57" depart="77.38" type="ped_pedestrian">
        <personTrip from="844111843" to="771558902" modes="public"/>
    </person>
    <person id="ped58" depart="78.74" type="ped_pedestrian">
        <personTrip from="-727499999#0" to="646299993" modes="public"/>
    </person>
    <person id="ped59" depart="80.09" type="ped_pedestrian">
        <personTrip from="59028916" to="-647251382#1" modes="public"/>
    </person>
    <person id="ped60" depart="81.45" type="ped_pedestrian">
        <personTrip from="723730804#1" to="364999402" modes="public"/>
    </person>
    <person id="ped61" depart="82.81" type="ped_pedestrian">
        <personTrip from="723799542" to="327496784#1" modes="public"/>
    </person>
    <person id="ped62" depart="84.17" type="ped_pedestrian">
        <personTrip from="-1010869691#0" to="-739365839" modes="public"/>
    </person>
    <person id="ped63" depart="85.52" type="ped_pedestrian">
        <personTrip from="-1232833301" to="844241946" modes="public"/>
    </person>
    <person id="ped64" depart="86.88" type="ped_pedestrian">
        <personTrip from="780099264" to="739365850" modes="public"/>
    </person>
    <person id="ped65" depart="88.24" type="ped_pedestrian">
        <personTrip from="-729957704" to="-364999399" modes="public"/>
    </person>
    <person id="ped66" depart="89.60" type="ped_pedestrian">
        <personTrip from="780099262" to="844977195" modes="public"/>
    </person>
    <person id="ped67" depart="90.95" type="ped_pedestrian">
        <personTrip from="-366209847" to="1101423187" modes="public"/>
    </person>
    <person id="ped68" depart="92.31" type="ped_pedestrian">
        <personTrip from="-365551452" to="723720252" modes="public"/>
    </person>
    <person id="ped69" depart="93.67" type="ped_pedestrian">
        <personTrip from="723765599#1" to="-596320609#1" modes="public"/>
    </person>
    <person id="ped70" depart="95.03" type="ped_pedestrian">
        <personTrip from="1010875975#2" to="365551445" modes="public"/>
    </person>
    <person id="ped71" depart="96.38" type="ped_pedestrian">
        <personTrip from="-723730805" to="771576971" modes="public"/>
    </person>
    <person id="ped72" depart="97.74" type="ped_pedestrian">
        <personTrip from="-844939484" to="-716700147#1" modes="public"/>
    </person>
    <person id="ped73" depart="99.10" type="ped_pedestrian">
        <personTrip from="364999401" to="719920976#1" modes="public"/>
    </person>
    <person id="ped74" depart="100.46" type="ped_pedestrian">
        <personTrip from="-715784922" to="-738991266" modes="public"/>
    </person>
    <person id="ped75" depart="101.81" type="ped_pedestrian">
        <personTrip from="945069460" to="649471267#1" modes="public"/>
    </person>
    <person id="ped76" depart="103.17" type="ped_pedestrian">
        <personTrip from="-905669612" to="1364742864" modes="public"/>
    </person>
    <person id="ped77" depart="104.53" type="ped_pedestrian">
        <personTrip from="-530492959" to="-717164442" modes="public"/>
    </person>
    <person id="ped78" depart="105.89" type="ped_pedestrian">
        <personTrip from="-739365896" to="44555616#5" modes="public"/>
    </person>
    <person id="ped79" depart="107.24" type="ped_pedestrian">
        <personTrip from="-717193285#0" to="-717142454" modes="public"/>
    </person>
    <person id="ped80" depart="108.60" type="ped_pedestrian">
        <personTrip from="-365590146#0" to="644419539" modes="public"/>
    </person>
    <person id="ped81" depart="109.96" type="ped_pedestrian">
        <personTrip from="-717182755" to="815400445#1" modes="public"/>
    </person>
    <person id="ped82" depart="111.32" type="ped_pedestrian">
        <personTrip from="769791637" to="-365590075" modes="public"/>
    </person>
    <person id="ped83" depart="112.67" type="ped_pedestrian">
        <personTrip from="-723331631#3" to="686402207#2" modes="public"/>
    </person>
    <person id="ped84" depart="114.03" type="ped_pedestrian">
        <personTrip from="-717052936" to="-642075389#1" modes="public"/>
    </person>
    <person id="ped85" depart="115.39" type="ped_pedestrian">
        <personTrip from="844895905" to="366210078" modes="public"/>
    </person>
    <person id="ped86" depart="116.75" type="ped_pedestrian">
        <personTrip from="-981120029" to="723948511#0" modes="public"/>
    </person>
    <person id="ped87" depart="118.10" type="ped_pedestrian">
        <personTrip from="727783031#1" to="-693134370#0" modes="public"/>
    </person>
    <person id="ped88" depart="119.46" type="ped_pedestrian">
        <personTrip from="-386891044#1" to="-904006035" modes="public"/>
    </person>
    <person id="ped89" depart="120.82" type="ped_pedestrian">
        <personTrip from="-844941859" to="-936294031" modes="public"/>
    </person>
    <person id="ped90" depart="122.18" type="ped_pedestrian">
        <personTrip from="719920975#0" to="687300873" modes="public"/>
    </person>
    <person id="ped91" depart="123.53" type="ped_pedestrian">
        <personTrip from="911161450#0" to="-406428897#3" modes="public"/>
    </person>
    <person id="ped92" depart="124.89" type="ped_pedestrian">
        <personTrip from="-844160305" to="-739365902" modes="public"/>
    </person>
    <person id="ped93" depart="126.25" type="ped_pedestrian">
        <personTrip from="770577531" to="-723702394#2" modes="public"/>
    </person>
    <person id="ped94" depart="127.61" type="ped_pedestrian">
        <personTrip from="-690614558" to="-911101906" modes="public"/>
    </person>
    <person id="ped95" depart="128.96" type="ped_pedestrian">
        <personTrip from="-844935238" to="-723782187" modes="public"/>
    </person>
    <person id="ped96" depart="130.32" type="ped_pedestrian">
        <personTrip from="-723702394#7" to="844186008" modes="public"/>
    </person>
    <person id="ped97" depart="131.68" type="ped_pedestrian">
        <personTrip from="-905720948" to="770577384" modes="public"/>
    </person>
    <person id="ped98" depart="133.04" type="ped_pedestrian">
        <personTrip from="365566684" to="-327496784#6" modes="public"/>
    </person>
    <person id="ped99" depart="134.39" type="ped_pedestrian">
        <personTrip from="959834079" to="739365863" modes="public"/>
    </person>
    <person id="ped100" depart="135.75" type="ped_pedestrian">
        <personTrip from="911081774" to="844213653#0" modes="public"/>
    </person>
    <person id="ped101" depart="137.11" type="ped_pedestrian">
        <personTrip from="762798638" to="-649609269#5" modes="public"/>
    </person>
    <person id="ped102" depart="138.47" type="ped_pedestrian">
        <personTrip from="1100124961" to="-717052935#1" modes="public"/>
    </person>
    <person id="ped103" depart="139.82" type="ped_pedestrian">
        <personTrip from="-844126698" to="-364999403" modes="public"/>
    </person>
    <person id="ped104" depart="141.18" type="ped_pedestrian">
        <personTrip from="-797273668" to="911184288" modes="public"/>
    </person>
    <person id="ped105" depart="142.54" type="ped_pedestrian">
        <personTrip from="-723730806" to="723948510#0" modes="public"/>
    </person>
    <person id="ped106" depart="143.90" type="ped_pedestrian">
        <personTrip from="-911114927" to="-844939483" modes="public"/>
    </person>
    <person id="ped107" depart="145.25" type="ped_pedestrian">
        <personTrip from="905047779" to="945109183" modes="public"/>
    </person>
    <person id="ped108" depart="146.61" type="ped_pedestrian">
        <personTrip from="365605959#0" to="717171648#0" modes="public"/>
    </person>
    <person id="ped109" depart="147.97" type="ped_pedestrian">
        <personTrip from="-647410670#1" to="-724304261" modes="public"/>
    </person>
    <person id="ped110" depart="149.33" type="ped_pedestrian">
        <personTrip from="911081773#1" to="386891044#2" modes="public"/>
    </person>
    <person id="ped111" depart="150.68" type="ped_pedestrian">
        <personTrip from="364999423#0" to="723702401" modes="public"/>
    </person>
    <person id="ped112" depart="152.04" type="ped_pedestrian">
        <personTrip from="-364999398#6" to="44555607#8" modes="public"/>
    </person>
    <person id="ped113" depart="153.40" type="ped_pedestrian">
        <personTrip from="1306897798#4" to="765324280#3" modes="public"/>
    </person>
    <person id="ped114" depart="154.76" type="ped_pedestrian">
        <personTrip from="-648979701" to="905669613" modes="public"/>
    </person>
    <person id="ped115" depart="156.11" type="ped_pedestrian">
        <personTrip from="-366175558" to="-688661789" modes="public"/>
    </person>
    <person id="ped116" depart="157.47" type="ped_pedestrian">
        <personTrip from="448565809" to="688661788#1" modes="public"/>
    </person>
    <person id="ped117" depart="158.83" type="ped_pedestrian">
        <personTrip from="-719920977" to="-468140730" modes="public"/>
    </person>
    <person id="ped118" depart="160.19" type="ped_pedestrian">
        <personTrip from="801024127#0" to="-723694342#1" modes="public"/>
    </person>
    <person id="ped119" depart="161.54" type="ped_pedestrian">
        <personTrip from="44555643#1" to="642223457" modes="public"/>
    </person>
    <person id="ped120" depart="162.90" type="ped_pedestrian">
        <personTrip from="-844920396" to="44555607#6" modes="public"/>
    </person>
    <person id="ped121" depart="164.26" type="ped_pedestrian">
        <personTrip from="1386035347#1" to="844260367" modes="public"/>
    </person>
    <person id="ped122" depart="165.62" type="ped_pedestrian">
        <personTrip from="-715797639" to="717145404#0" modes="public"/>
    </person>
    <person id="ped123" depart="166.97" type="ped_pedestrian">
        <personTrip from="-723331634#0" to="-837020455" modes="public"/>
    </person>
    <person id="ped124" depart="168.33" type="ped_pedestrian">
        <personTrip from="687300868#3" to="-727505698" modes="public"/>
    </person>
    <person id="ped125" depart="169.69" type="ped_pedestrian">
        <personTrip from="-738991280#0" to="723702408#3" modes="public"/>
    </person>
    <person id="ped126" depart="171.05" type="ped_pedestrian">
        <personTrip from="-365601853" to="-911146733" modes="public"/>
    </person>
    <person id="ped127" depart="172.41" type="ped_pedestrian">
        <personTrip from="959782565#0" to="946725606#1" modes="public"/>
    </person>
    <person id="ped128" depart="173.76" type="ped_pedestrian">
        <personTrip from="-365601940" to="-717049152" modes="public"/>
    </person>
    <person id="ped129" depart="175.12" type="ped_pedestrian">
        <personTrip from="-723730806" to="844252544#0" modes="public"/>
    </person>
    <person id="ped130" depart="176.48" type="ped_pedestrian">
        <personTrip from="789198014" to="780133963" modes="public"/>
    </person>
    <person id="ped131" depart="177.84" type="ped_pedestrian">
        <personTrip from="-780099262" to="-648979726" modes="public"/>
    </person>
    <person id="ped132" depart="179.19" type="ped_pedestrian">
        <personTrip from="739365858#1" to="716700148#3" modes="public"/>
    </person>
    <person id="ped133" depart="180.55" type="ped_pedestrian">
        <personTrip from="59149160#1" to="911212957" modes="public"/>
    </person>
    <person id="ped134" depart="181.91" type="ped_pedestrian">
        <personTrip from="649609269#0" to="-1083115313#2" modes="public"/>
    </person>
    <person id="ped135" depart="183.27" type="ped_pedestrian">
        <personTrip from="738991269" to="-727505696#1" modes="public"/>
    </person>
    <person id="ped136" depart="184.62" type="ped_pedestrian">
        <personTrip from="679182809#5" to="844921474#2" modes="public"/>
    </person>
    <person id="ped137" depart="185.98" type="ped_pedestrian">
        <personTrip from="-642480598#1" to="-464696905" modes="public"/>
    </person>
    <person id="ped138" depart="187.34" type="ped_pedestrian">
        <personTrip from="-44555641#2" to="365593880" modes="public"/>
    </person>
    <person id="ped139" depart="188.70" type="ped_pedestrian">
        <personTrip from="-723779213#0" to="467270679#0" modes="public"/>
    </person>
    <person id="ped140" depart="190.05" type="ped_pedestrian">
        <personTrip from="717163304" to="-715797636" modes="public"/>
    </person>
    <person id="ped141" depart="191.41" type="ped_pedestrian">
        <personTrip from="644750518#1" to="-723730802" modes="public"/>
    </person>
    <person id="ped142" depart="192.77" type="ped_pedestrian">
        <personTrip from="1148149220" to="815400445#0" modes="public"/>
    </person>
    <person id="ped143" depart="194.13" type="ped_pedestrian">
        <personTrip from="758018844" to="-366210566#2" modes="public"/>
    </person>
    <person id="ped144" depart="195.48" type="ped_pedestrian">
        <personTrip from="-844941859" to="-723780521#2" modes="public"/>
    </person>
    <person id="ped145" depart="196.84" type="ped_pedestrian">
        <personTrip from="-1010886424#1" to="723779213#4" modes="public"/>
    </person>
    <person id="ped146" depart="198.20" type="ped_pedestrian">
        <personTrip from="644945518#1" to="-723720247#1" modes="public"/>
    </person>
    <person id="ped147" depart="199.56" type="ped_pedestrian">
        <personTrip from="723694342#1" to="365588325" modes="public"/>
    </person>
    <person id="ped148" depart="200.91" type="ped_pedestrian">
        <personTrip from="-845015593" to="-1090949826" modes="public"/>
    </person>
    <person id="ped149" depart="202.27" type="ped_pedestrian">
        <personTrip from="-365605961" to="791362827#0" modes="public"/>
    </person>
    <person id="ped150" depart="203.63" type="ped_pedestrian">
        <personTrip from="813028615" to="364999430#0" modes="public"/>
    </person>
    <person id="ped151" depart="204.99" type="ped_pedestrian">
        <personTrip from="739365860#2" to="44555607#1" modes="public"/>
    </person>
    <person id="ped152" depart="206.34" type="ped_pedestrian">
        <personTrip from="-644750519#0" to="-59149167#5" modes="public"/>
    </person>
    <person id="ped153" depart="207.70" type="ped_pedestrian">
        <personTrip from="-738991252#0" to="809072942#0" modes="public"/>
    </person>
    <person id="ped154" depart="209.06" type="ped_pedestrian">
        <personTrip from="724034859" to="770562858#1" modes="public"/>
    </person>
    <person id="ped155" depart="210.42" type="ped_pedestrian">
        <personTrip from="809072942#0" to="-716700142" modes="public"/>
    </person>
    <person id="ped156" depart="211.77" type="ped_pedestrian">
        <personTrip from="-723702394#5" to="-44555611#1" modes="public"/>
    </person>
    <person id="ped157" depart="213.13" type="ped_pedestrian">
        <personTrip from="723799548#1" to="791799514" modes="public"/>
    </person>
    <person id="ped158" depart="214.49" type="ped_pedestrian">
        <personTrip from="-844182739#1" to="642395555" modes="public"/>
    </person>
    <person id="ped159" depart="215.85" type="ped_pedestrian">
        <personTrip from="-647410670#0" to="844241947#2" modes="public"/>
    </person>
    <person id="ped160" depart="217.20" type="ped_pedestrian">
        <personTrip from="770601481" to="911103860" modes="public"/>
    </person>
    <person id="ped161" depart="218.56" type="ped_pedestrian">
        <personTrip from="738991253#0" to="789843607" modes="public"/>
    </person>
    <person id="ped162" depart="219.92" type="ped_pedestrian">
        <personTrip from="-1306897798#2" to="723396202" modes="public"/>
    </person>
    <person id="ped163" depart="221.28" type="ped_pedestrian">
        <personTrip from="-739365870" to="844241949#1" modes="public"/>
    </person>
    <person id="ped164" depart="222.63" type="ped_pedestrian">
        <personTrip from="727677665" to="770601480#1" modes="public"/>
    </person>
    <person id="ped165" depart="223.99" type="ped_pedestrian">
        <personTrip from="738991253#0" to="-723759337#0" modes="public"/>
    </person>
    <person id="ped166" depart="225.35" type="ped_pedestrian">
        <personTrip from="723993796" to="-44555642#2" modes="public"/>
    </person>
    <person id="ped167" depart="226.71" type="ped_pedestrian">
        <personTrip from="771576970#1" to="769791635#2" modes="public"/>
    </person>
    <person id="ped168" depart="228.06" type="ped_pedestrian">
        <personTrip from="-717145402" to="738991267#2" modes="public"/>
    </person>
    <person id="ped169" depart="229.42" type="ped_pedestrian">
        <personTrip from="-911204746" to="-727783030#0" modes="public"/>
    </person>
    <person id="ped170" depart="230.78" type="ped_pedestrian">
        <personTrip from="724026145#0" to="-717174022" modes="public"/>
    </person>
    <person id="ped171" depart="232.14" type="ped_pedestrian">
        <personTrip from="-1306897797#0" to="-715722400" modes="public"/>
    </person>
    <person id="ped172" depart="233.49" type="ped_pedestrian">
        <personTrip from="-739365858#0" to="770601480#2" modes="public"/>
    </person>
    <person id="ped173" depart="234.85" type="ped_pedestrian">
        <personTrip from="905722486" to="-723782190" modes="public"/>
    </person>
    <person id="ped174" depart="236.21" type="ped_pedestrian">
        <personTrip from="647251385" to="-844111846" modes="public"/>
    </person>
    <person id="ped175" depart="237.57" type="ped_pedestrian">
        <personTrip from="911125509" to="364999398#1" modes="public"/>
    </person>
    <person id="ped176" depart="238.92" type="ped_pedestrian">
        <personTrip from="844921474#3" to="-45481510#3" modes="public"/>
    </person>
    <person id="ped177" depart="240.28" type="ped_pedestrian">
        <personTrip from="911081780" to="-685775403" modes="public"/>
    </person>
    <person id="ped178" depart="241.64" type="ped_pedestrian">
        <personTrip from="905679694#0" to="-723749637" modes="public"/>
    </person>
    <person id="ped179" depart="243.00" type="ped_pedestrian">
        <personTrip from="-44555642#4" to="-905047778" modes="public"/>
    </person>
    <person id="ped180" depart="244.35" type="ped_pedestrian">
        <personTrip from="719920974#0" to="-738991272#0" modes="public"/>
    </person>
    <person id="ped181" depart="245.71" type="ped_pedestrian">
        <personTrip from="468079103#2" to="1315119049" modes="public"/>
    </person>
    <person id="ped182" depart="247.07" type="ped_pedestrian">
        <personTrip from="-803175989#0" to="386891038" modes="public"/>
    </person>
    <person id="ped183" depart="248.43" type="ped_pedestrian">
        <personTrip from="-723702403#2" to="717095809" modes="public"/>
    </person>
    <person id="ped184" depart="249.78" type="ped_pedestrian">
        <personTrip from="-1010869691#5" to="844186013" modes="public"/>
    </person>
    <person id="ped185" depart="251.14" type="ped_pedestrian">
        <personTrip from="364999398#8" to="717174018#0" modes="public"/>
    </person>
    <person id="ped186" depart="252.50" type="ped_pedestrian">
        <personTrip from="723699438#1" to="686713430" modes="public"/>
    </person>
    <person id="ped187" depart="253.86" type="ped_pedestrian">
        <personTrip from="-771576969#2" to="-365566688" modes="public"/>
    </person>
    <person id="ped188" depart="255.21" type="ped_pedestrian">
        <personTrip from="679182810#0" to="-739365861#3" modes="public"/>
    </person>
    <person id="ped189" depart="256.57" type="ped_pedestrian">
        <personTrip from="-738991272#1" to="762781464" modes="public"/>
    </person>
    <person id="ped190" depart="257.93" type="ped_pedestrian">
        <personTrip from="717174018#1" to="-727677664" modes="public"/>
    </person>
    <person id="ped191" depart="259.29" type="ped_pedestrian">
        <personTrip from="-738991253#0" to="-844186009" modes="public"/>
    </person>
    <person id="ped192" depart="260.64" type="ped_pedestrian">
        <personTrip from="-844157684" to="-724034859" modes="public"/>
    </person>
    <person id="ped193" depart="262.00" type="ped_pedestrian">
        <personTrip from="-59149167#4" to="-844923537" modes="public"/>
    </person>
    <person id="ped194" depart="263.36" type="ped_pedestrian">
        <personTrip from="844921658" to="689966731" modes="public"/>
    </person>