<?xml version="1.0" encoding="UTF-8"?>

<!-- generated on 2025-06-22 23:42:57.713422 by osmWebWizard.py UNKNOWN
<configuration>
    <net-file value="/Users/nedasarbalavandeymir/Sumo/2025-06-22-23-41-46/osm.net.xml.gz"/>
    <output-trip-file value="/Users/nedasarbalavandeymir/Sumo/2025-06-22-23-41-46/osm.truck.trips.xml"/>
    <route-file value="/Users/nedasarbalavandeymir/Sumo/2025-06-22-23-41-46/osm.truck.rou.xml"/>
    <prefix value="truck"/>
    <trip-attributes value="departLane=&quot;best&quot;"/>
    <fringe-start-attributes value="departSpeed=&quot;max&quot;"/>
    <vehicle-class value="truck"/>
    <fringe-factor value="5"/>
    <vclass value="truck"/>
    <via-edge-types value="highway.motorway,highway.motorway_link,highway.trunk_link,highway.primary_link,highway.secondary_link,highway.tertiary_link"/>
    <min-distance value="600.0"/>
    <min-distance.fringe value="10.0"/>
    <remove-loops value="True"/>
    <validate value="True"/>
    <insertion-density value="8.0"/>
</configuration>
-->

<!-- generated on 2025-06-22 23:42:57 by Eclipse SUMO duarouter Version 1.22.0
<duarouterConfiguration xmlns:xsi="http://www.w3.org/2001/XMLSchema-instance" xsi:noNamespaceSchemaLocation="http://sumo.dlr.de/xsd/duarouterConfiguration.xsd">

    <input>
        <net-file value="/Users/nedasarbalavandeymir/Sumo/2025-06-22-23-41-46/osm.net.xml.gz"/>
        <route-files value="/Users/nedasarbalavandeymir/Sumo/2025-06-22-23-41-46/osm.truck.trips.xml"/>
    </input>

    <output>
        <output-file value="/Users/nedasarbalavandeymir/Sumo/2025-06-22-23-41-46/osm.truck.trips.xml.tmp"/>
        <alternatives-output value="NUL"/>
        <write-trips value="true"/>
    </output>

    <processing>
        <remove-loops value="true"/>
    </processing>

    <time>
        <begin value="0.0"/>
        <end value="3600.0"/>
    </time>

    <report>
        <no-warnings value="true"/>
        <ignore-errors value="true"/>
        <no-step-log value="true"/>
    </report>

</duarouterConfiguration>
-->

<routes xmlns:xsi="http://www.w3.org/2001/XMLSchema-instance" xsi:noNamespaceSchemaLocation="http://sumo.dlr.de/xsd/routes_file.xsd">
    <vType id="truck_truck" vClass="truck"/>
    <trip id="truck0" type="truck_truck" depart="0.00" departLane="best" departSpeed="max" from="13395352#0" to="-1148152677#2"/>
    <trip id="truck1" type="truck_truck" depart="1.20" departLane="best" from="-13470630#11" to="13425459#0"/>
    <trip id="truck2" type="truck_truck" depart="2.40" departLane="best" departSpeed="max" from="13469408#0" to="-13422482#0"/>
    <trip id="truck3" type="truck_truck" depart="3.60" departLane="best" from="405336659#2" to="-13303647"/>
    <trip id="truck4" type="truck_truck" depart="4.81" departLane="best" departSpeed="max" from="808613723" to="1148156394#6"/>
    <trip id="truck5" type="truck_truck" depart="6.01" departLane="best" from="13435317#0" to="-1253872733#1"/>
    <trip id="truck6" type="truck_truck" depart="7.21" departLane="best" from="13401580#10" to="13307812"/>
    <trip id="truck7" type="truck_truck" depart="8.41" departLane="best" from="-13435323#2" to="13346277"/>
    <trip id="truck8" type="truck_truck" depart="9.61" departLane="best" from="399541085#2" to="-1036498467#26"/>
    <trip id="truck9" type="truck_truck" depart="10.81" departLane="best" departSpeed="max" from="38852017" to="13440739"/>
    <trip id="truck10" type="truck_truck" depart="12.02" departLane="best" from="-401276172" to="13363721#3"/>
    <trip id="truck11" type="truck_truck" depart="13.22" departLane="best" from="59034260#2" to="-30140011#1"/>
    <trip id="truck12" type="truck_truck" depart="14.42" departLane="best" from="-13317075#16" to="-13312266#0"/>
    <trip id="truck13" type="truck_truck" depart="15.62" departLane="best" from="405324350#0" to="-13362606#3"/>
    <trip id="truck14" type="truck_truck" depart="16.82" departLane="best" from="-390810268" to="13460666#6"/>
    <trip id="truck15" type="truck_truck" depart="18.02" departLane="best" from="-13307402#13" to="693134371#0"/>
    <trip id="truck16" type="truck_truck" depart="19.23" departLane="best" from="-44546435#0" to="13312605"/>
    <trip id="truck17" type="truck_truck" depart="20.43" departLane="best" from="401276176#2" to="13377426#6"/>
    <trip id="truck18" type="truck_truck" depart="21.63" departLane="best" from="405327112" to="1333659002"/>
    <trip id="truck19" type="truck_truck" depart="22.83" departLane="best" departSpeed="max" from="13450213" to="-1270471241#0"/>
    <trip id="truck20" type="truck_truck" depart="24.03" departLane="best" from="13440743#0" to="-13470630#1"/>
    <trip id="truck21" type="truck_truck" depart="25.23" departLane="best" from="13308855#0" to="-13435317#1"/>
    <trip id="truck22" type="truck_truck" depart="26.43" departLane="best" from="13394376#3" to="404952602#7"/>
    <trip id="truck23" type="truck_truck" depart="27.64" departLane="best" from="-405493078" to="-13403140#0"/>
    <trip id="truck24" type="truck_truck" depart="28.84" departLane="best" from="-13465288#5" to="44555612#1"/>
    <trip id="truck25" type="truck_truck" depart="30.04" departLane="best" from="-13399177#9" to="13370189#1"/>
    <trip id="truck26" type="truck_truck" depart="31.24" departLane="best" from="-13385659#5" to="13460666#23"/>
    <trip id="truck27" type="truck_truck" depart="32.44" departLane="best" from="-13382702#0" to="405330526#0"/>
    <trip id="truck28" type="truck_truck" depart="33.64" departLane="best" from="900615017#1" to="13386810"/>
    <trip id="truck29" type="truck_truck" depart="34.85" departLane="best" from="-13317075#14" to="13426101#6"/>
    <trip id="truck30" type="truck_truck" depart="36.05" departLane="best" from="405324337" to="-24706043#0"/>
    <trip id="truck31" type="truck_truck" depart="37.25" departLane="best" from="-13442107#1" to="-1148156395#7"/>
    <trip id="truck32" type="truck_truck" depart="38.45" departLane="best" from="-28312110#21" to="13460181#4"/>
    <trip id="truck33" type="truck_truck" depart="39.65" departLane="best" departSpeed="max" from="-13425725" to="45481512#1"/>
    <trip id="truck34" type="truck_truck" depart="40.85" departLane="best" from="405327865" to="-24706043#6"/>
    <trip id="truck35" type="truck_truck" depart="42.05" departLane="best" departSpeed="max" from="13402588" to="44546435#0"/>
    <trip id="truck36" type="truck_truck" depart="43.26" departLane="best" from="405493073#0" to="1036498468"/>
    <trip id="truck37" type="truck_truck" depart="44.46" departLane="best" departSpeed="max" from="-13465285" to="-13443616#3"/>
    <trip id="truck38" type="truck_truck" depart="45.66" departLane="best" from="13318196#4" to="13454932#3"/>
    <trip id="truck39" type="truck_truck" depart="46.86" departLane="best" from="-59034260#0" to="-13422482#10"/>
    <trip id="truck40" type="truck_truck" depart="48.06" departLane="best" from="-976212199#6" to="1285596082"/>
    <trip id="truck41" type="truck_truck" depart="49.26" departLane="best" from="13317004#7" to="-1270708356#3"/>
    <trip id="truck42" type="truck_truck" depart="50.47" departLane="best" departSpeed="max" from="-13333957" to="13381891#10"/>
    <trip id="truck43" type="truck_truck" depart="51.67" departLane="best" departSpeed="max" from="28900337" to="-599524901#3"/>
    <trip id="truck44" type="truck_truck" depart="52.87" departLane="best" from="-13297309#1" to="405330559#1"/>
    <trip id="truck45" type="truck_truck" depart="54.07" departLane="best" departSpeed="max" from="970303884" to="13297309#2"/>
    <trip id="truck46" type="truck_truck" depart="55.27" departLane="best" from="-693134371#1" to="405325447"/>
    <trip id="truck47" type="truck_truck" depart="56.47" departLane="best" from="106343170#7" to="13454936#2"/>
    <trip id="truck48" type="truck_truck" depart="57.68" departLane="best" from="13435316#2" to="13303529#1"/>
    <trip id="truck49" type="truck_truck" depart="58.88" departLane="best" from="-13465288#5" to="13387037#1"/>
    <trip id="truck50" type="truck_truck" depart="60.08" departLane="best" from="-13337809#4" to="-72029288#0"/>
    <trip id="truck51" type="truck_truck" depart="61.28" departLane="best" from="106367746#4" to="58811839#2"/>
    <trip id="truck52" type="truck_truck" depart="62.48" departLane="best" from="405327849" to="-13454936#1"/>
    <trip id="truck53" type="truck_truck" depart="63.68" departLane="best" from="13286772" to="-13385659#0"/>
    <trip id="truck54" type="truck_truck" depart="64.88" departLane="best" from="405493046" to="405327139#0"/>
    <trip id="truck55" type="truck_truck" depart="66.09" departLane="best" from="-182050924#16" to="-13385659#4"/>
    <trip id="truck56" type="truck_truck" depart="67.29" departLane="best" departSpeed="max" from="13377751#0" to="13362606#1"/>
    <trip id="truck57" type="truck_truck" depart="68.49" departLane="best" from="181425679" to="13307402#0"/>
    <trip id="truck58" type="truck_truck" depart="69.69" departLane="best" from="-25003162#28" to="13297309#6"/>
    <trip id="truck59" type="truck_truck" depart="70.89" departLane="best" from="1036492888" to="-25003162#7"/>
    <trip id="truck60" type="truck_truck" depart="72.09" departLane="best" from="1148149225#1" to="406486606#0"/>
    <trip id="truck61" type="truck_truck" depart="73.30" departLane="best" from="-13317075#0" to="-401276176#4"/>
    <trip id="truck62" type="truck_truck" depart="74.50" departLane="best" from="-25003162#17" to="-13289482#2"/>
    <trip id="truck63" type="truck_truck" depart="75.70" departLane="best" from="405327878#0" to="46968328#4"/>
    <trip id="truck64" type="truck_truck" depart="76.90" departLane="best" departSpeed="max" from="-13312605" to="1148152678#6"/>
    <trip id="truck65" type="truck_truck" depart="78.10" departLane="best" from="13303064#9" to="-1386035348"/>
    <trip id="truck66" type="truck_truck" depart="79.30" departLane="best" from="182050924#3" to="-13330404#1"/>
    <trip id="truck67" type="truck_truck" depart="80.51" departLane="best" from="1148156395#8" to="-13312602#1"/>
    <trip id="truck68" type="truck_truck" depart="81.71" departLane="best" departSpeed="max" from="-13465285" to="405327150"/>
    <trip id="truck69" type="truck_truck" depart="82.91" departLane="best" from="-844176767" to="-13407893#0"/>
    <trip id="truck70" type="truck_truck" depart="84.11" departLane="best" from="13307402#6" to="13460666#7"/>
    <trip id="truck71" type="truck_truck" depart="85.31" departLane="best" from="-13422164#11" to="182050924#18"/>
    <trip id="truck72" type="truck_truck" depart="86.51" departLane="best" departSpeed="max" from="970303884" to="13396168#1"/>
    <trip id="truck73" type="truck_truck" depart="87.71" departLane="best" from="1036498467#17" to="13289433#1"/>
    <trip id="truck74" type="truck_truck" depart="88.92" departLane="best" from="-13345105#7" to="-13426101#11"/>
    <trip id="truck75" type="truck_truck" depart="90.12" departLane="best" from="401276147#0" to="13345105#9"/>
    <trip id="truck76" type="truck_truck" depart="91.32" departLane="best" from="13442375#2" to="-13422482#14"/>
    <trip id="truck77" type="truck_truck" depart="92.52" departLane="best" from="-13303529#0" to="13382702#0"/>
    <trip id="truck78" type="truck_truck" depart="93.72" departLane="best" from="-13442107#1" to="405337877#1"/>
    <trip id="truck79" type="truck_truck" depart="94.92" departLane="best" from="405327139#1" to="-13296674#5"/>
    <trip id="truck80" type="truck_truck" depart="96.13" departLane="best" from="13450666#4" to="13419138#14"/>
    <trip id="truck81" type="truck_truck" depart="97.33" departLane="best" from="-13430467#2" to="1036527247"/>
    <trip id="truck82" type="truck_truck" depart="98.53" departLane="best" from="45477672#2" to="13327955#13"/>
    <trip id="truck83" type="truck_truck" depart="99.73" departLane="best" from="1148156394#6" to="-25003162#2"/>
    <trip id="truck84" type="truck_truck" depart="100.93" departLane="best" from="-390810271#1" to="-13394378#4"/>
    <trip id="truck85" type="truck_truck" depart="102.13" departLane="best" from="-13318196#4" to="693134371#16"/>
    <trip id="truck87" type="truck_truck" depart="104.54" departLane="best" from="-599524901#17" to="-30140057#1"/>
    <trip id="truck88" type="truck_truck" depart="105.74" departLane="best" from="405327112" to="-13444308#1"/>
    <trip id="truck89" type="truck_truck" depart="106.94" departLane="best" from="-13401580#8" to="1022491851"/>
    <trip id="truck90" type="truck_truck" depart="108.14" departLane="best" departSpeed="max" from="808613723" to="13464466#1"/>
    <trip id="truck91" type="truck_truck" depart="109.34" departLane="best" from="-13455078#2" to="405497705"/>
    <trip id="truck92" type="truck_truck" depart="110.54" departLane="best" from="1036527250#0" to="405327101"/>
    <trip id="truck93" type="truck_truck" depart="111.75" departLane="best" from="-13315403#0" to="-13278789#3"/>
    <trip id="truck94" type="truck_truck" depart="112.95" departLane="best" from="976576365#3" to="-401280471"/>
    <trip id="truck95" type="truck_truck" depart="114.15" departLane="best" from="687300875#2" to="406486602#15"/>
    <trip id="truck96" type="truck_truck" depart="115.35" departLane="best" from="405325375" to="-13378469#6"/>
    <trip id="truck97" type="truck_truck" depart="116.55" departLane="best" from="-599524901#0" to="-13289598#0"/>
    <trip id="truck98" type="truck_truck" depart="117.75" departLane="best" from="-44546435#10" to="766186252#1"/>
    <trip id="truck99" type="truck_truck" depart="118.96" departLane="best" departSpeed="max" from="-13465285" to="25003162#17"/>
    <trip id="truck100" type="truck_truck" depart="120.16" departLane="best" departSpeed="max" from="1073800130" to="-599524901#7"/>
    <trip id="truck101" type="truck_truck" depart="121.36" departLane="best" from="59034260#2" to="946725601#0"/>
    <trip id="truck102" type="truck_truck" depart="122.56" departLane="best" from="13317075#1" to="13454932#1"/>
    <trip id="truck103" type="truck_truck" depart="123.76" departLane="best" from="-687300875#0" to="-13339778#0"/>
    <trip id="truck104" type="truck_truck" depart="124.96" departLane="best" from="13309884#1" to="13470630#16"/>
    <trip id="truck105" type="truck_truck" depart="126.16" departLane="best" from="-13292508#6" to="13345105#2"/>
    <trip id="truck106" type="truck_truck" depart="127.37" departLane="best" departSpeed="max" from="13289433#0" to="405325391#2"/>
    <trip id="truck107" type="truck_truck" depart="128.57" departLane="best" from="-13378892#0" to="599524901#0"/>
    <trip id="truck108" type="truck_truck" depart="129.77" departLane="best" from="-13308855#1" to="-13391024"/>
    <trip id="truck109" type="truck_truck" depart="130.97" departLane="best" from="-13357583#2" to="13422164#9"/>
    <trip id="truck110" type="truck_truck" depart="132.17" departLane="best" departSpeed="max" from="-13446857" to="-13326393#10"/>
    <trip id="truck111" type="truck_truck" depart="133.37" departLane="best" from="405336657#3" to="-13443616#0"/>
    <trip id="truck112" type="truck_truck" depart="134.58" departLane="best" from="-764132243#2" to="13345105#17"/>
    <trip id="truck113" type="truck_truck" depart="135.78" departLane="best" departSpeed="max" from="13297785" to="44546435#2"/>
    <trip id="truck114" type="truck_truck" depart="136.98" departLane="best" from="-13422479#2" to="13451819"/>
    <trip id="truck115" type="truck_truck" depart="138.18" departLane="best" from="13422482#7" to="1352713248#0"/>
    <trip id="truck116" type="truck_truck" depart="139.38" departLane="best" from="-28312110#5" to="13470930#11"/>
    <trip id="truck117" type="truck_truck" depart="140.58" departLane="best" departSpeed="max" from="-13304481" to="1036498467#6"/>
    <trip id="truck119" type="truck_truck" depart="142.99" departLane="best" departSpeed="max" from="-13304481" to="-13418660"/>
    <trip id="truck121" type="truck_truck" depart="145.39" departLane="best" from="405330526#2" to="405328872#0"/>
    <trip id="truck122" type="truck_truck" depart="146.59" departLane="best" from="-405493073#4" to="-13373629#1"/>
    <trip id="truck124" type="truck_truck" depart="148.99" departLane="best" departSpeed="max" from="13401619" to="-1036498467#8"/>
    <trip id="truck125" type="truck_truck" depart="150.20" departLane="best" from="401273096" to="-1352713247#1"/>
    <trip id="truck126" type="truck_truck" depart="151.40" departLane="best" from="13419138#9" to="45477672#3"/>
    <trip id="truck127" type="truck_truck" depart="152.60" departLane="best" from="-13360602" to="13318196#6"/>
    <trip id="truck128" type="truck_truck" depart="153.80" departLane="best" from="-13327960" to="13314268"/>
    <trip id="truck129" type="truck_truck" depart="155.00" departLane="best" from="13469511#10" to="13363719#0"/>
    <trip id="truck130" type="truck_truck" depart="156.20" departLane="best" from="13460181#12" to="-13401580#13"/>
    <trip id="truck131" type="truck_truck" depart="157.41" departLane="best" from="-13391687#2" to="-13454936#3"/>
    <trip id="truck132" type="truck_truck" depart="158.61" departLane="best" from="1270471238" to="405337877#0"/>
    <trip id="truck133" type="truck_truck" depart="159.81" departLane="best" from="405324347#0" to="-13307402#5"/>
    <trip id="truck134" type="truck_truck" depart="161.01" departLane="best" from="-900575480#0" to="-13463788#8"/>
    <trip id="truck135" type="truck_truck" depart="162.21" departLane="best" from="13394378#4" to="13452420#5"/>
    <trip id="truck136" type="truck_truck" depart="163.41" departLane="best" from="13470630#14" to="13312605"/>
    <trip id="truck137" type="truck_truck" depart="164.61" departLane="best" departSpeed="max" from="-905708409" to="-1036711155#11"/>
    <trip id="truck138" type="truck_truck" depart="165.82" departLane="best" from="-13307402#16" to="405330550"/>
    <trip id="truck139" type="truck_truck" depart="167.02" departLane="best" from="405337876#1" to="13308709"/>
    <trip id="truck140" type="truck_truck" depart="168.22" departLane="best" from="401280476" to="13345105#10"/>
    <trip id="truck141" type="truck_truck" depart="169.42" departLane="best" from="-13376891#0" to="-13328418#1"/>
    <trip id="truck142" type="truck_truck" depart="170.62" departLane="best" from="25003162#2" to="405337862#0"/>
    <trip id="truck144" type="truck_truck" depart="173.03" departLane="best" from="405337863#1" to="-13405976#0"/>
    <trip id="truck145" type="truck_truck" depart="174.23" departLane="best" from="-13455078#1" to="-13315040#2"/>
    <trip id="truck146" type="truck_truck" depart="175.43" departLane="best" from="-25003162#6" to="405330559#5"/>
    <trip id="truck147" type="truck_truck" depart="176.63" departLane="best" from="-642075391" to="13378060"/>
    <trip id="truck148" type="truck_truck" depart="177.83" departLane="best" from="-13378469#1" to="415083975#0"/>
    <trip id="truck149" type="truck_truck" depart="179.03" departLane="best" from="405327119#2" to="-693134371#23"/>
    <trip id="truck150" type="truck_truck" depart="180.24" departLane="best" from="399544788" to="405330526#0"/>
    <trip id="truck151" type="truck_truck" depart="181.44" departLane="best" from="-1148152678#6" to="13465285"/>
    <trip id="truck152" type="truck_truck" depart="182.64" departLane="best" from="-399550744#2" to="-415083979#1"/>
    <trip id="truck153" type="truck_truck" depart="183.84" departLane="best" departSpeed="max" from="353279689#0" to="405327113#2"/>
    <trip id="truck154" type="truck_truck" depart="185.04" departLane="best" from="399544788" to="-13460181#12"/>
    <trip id="truck155" type="truck_truck" depart="186.24" departLane="best" from="28312137#2" to="-13317004#2"/>
    <trip id="truck156" type="truck_truck" depart="187.44" departLane="best" from="405327102" to="-405325443#0"/>
    <trip id="truck157" type="truck_truck" depart="188.65" departLane="best" departSpeed="max" from="-13437907" to="400823777#3"/>
    <trip id="truck158" type="truck_truck" depart="189.85" departLane="best" from="1101012467" to="-181425652#1"/>
    <trip id="truck159" type="truck_truck" depart="191.05" departLane="best" departSpeed="max" from="30140057#0" to="-13430467#0"/>
    <trip id="truck160" type="truck_truck" depart="192.25" departLane="best" from="-1148152678#1" to="-13395352#2"/>
    <trip id="truck161" type="truck_truck" depart="193.45" departLane="best" departSpeed="max" from="-353279690" to="405327113#3"/>
    <trip id="truck162" type="truck_truck" depart="194.65" departLane="best" departSpeed="max" from="13395500" to="-45481508#1"/>
    <trip id="truck163" type="truck_truck" depart="195.86" departLane="best" from="739030982" to="13303527#0"/>
    <trip id="truck164" type="truck_truck" depart="197.06" departLane="best" from="465420255" to="13318196#6"/>
    <trip id="truck165" type="truck_truck" depart="198.26" departLane="best" from="692908076#5" to="-13385659#0"/>
    <trip id="truck166" type="truck_truck" depart="199.46" departLane="best" from="599524901#8" to="13456977"/>
    <trip id="truck167" type="truck_truck" depart="200.66" departLane="best" from="-13332163#1" to="719920981"/>
    <trip id="truck168" type="truck_truck" depart="201.86" departLane="best" departSpeed="max" from="13463794" to="-24706043#0"/>
    <trip id="truck169" type="truck_truck" depart="203.06" departLane="best" from="13376891#0" to="1306030118#1"/>
    <trip id="truck170" type="truck_truck" depart="204.27" departLane="best" departSpeed="max" from="-45481511" to="-13335192#1"/>
    <trip id="truck171" type="truck_truck" depart="205.47" departLane="best" from="-13460181#9" to="13448848#0"/>
    <trip id="truck172" type="truck_truck" depart="206.67" departLane="best" from="-1036498467#13" to="-406486602#11"/>
    <trip id="truck173" type="truck_truck" depart="207.87" departLane="best" from="13307402#22" to="13454932#5"/>
    <trip id="truck174" type="truck_truck" depart="209.07" departLane="best" from="-405330559#6" to="-13296674#1"/>
    <trip id="truck175" type="truck_truck" depart="210.27" departLane="best" from="13419617#0" to="-28312137#1"/>
    <trip id="truck176" type="truck_truck" depart="211.48" departLane="best" from="-28312110#14" to="405324346#0"/>
    <trip id="truck177" type="truck_truck" depart="212.68" departLane="best" from="13460666#11" to="-1352713248#3"/>
    <trip id="truck178" type="truck_truck" depart="213.88" departLane="best" from="-25003162#25" to="-46994950#3"/>
    <trip id="truck179" type="truck_truck" depart="215.08" departLane="best" from="-599524901#16" to="-13470930#16"/>
    <trip id="truck180" type="truck_truck" depart="216.28" departLane="best" from="-13355270#1" to="-599524901#16"/>
    <trip id="truck181" type="truck_truck" depart="217.48" departLane="best" from="465653384#1" to="13422482#11"/>
    <trip id="truck182" type="truck_truck" depart="218.69" departLane="best" from="405337873#1" to="13374305#4"/>
    <trip id="truck183" type="truck_truck" depart="219.89" departLane="best" from="24706043#0" to="13309884#3"/>
    <trip id="truck184" type="truck_truck" depart="221.09" departLane="best" from="-1036484845" to="-13469511#0"/>
    <trip id="truck185" type="truck_truck" depart="222.29" departLane="best" from="976212199#8" to="13342091"/>
    <trip id="truck186" type="truck_truck" depart="223.49" departLane="best" from="13401801#3" to="1036711156"/>
    <trip id="truck187" type="truck_truck" depart="224.69" departLane="best" from="-13338902" to="-13419140#1"/>
    <trip id="truck188" type="truck_truck" depart="225.89" departLane="best" from="1148156394#8" to="405337866#1"/>
    <trip id="truck189" type="truck_truck" depart="227.10" departLane="best" from="30140057#1" to="-13379344#2"/>
    <trip id="truck190" type="truck_truck" depart="228.30" departLane="best" from="13312602#9" to="1156537265"/>
    <trip id="truck191" type="truck_truck" depart="229.50" departLane="best" departSpeed="max" from="13391687#0" to="291312372"/>
    <trip id="truck192" type="truck_truck" depart="230.70" departLane="best" from="401273098#10" to="-13470930#0"/>
    <trip id="truck193" type="truck_truck" depart="231.90" departLane="best" from="13424365#2" to="-13426101#11"/>
    <trip id="truck194" type="truck_truck" depart="233.10" departLane="best" departSpeed="max" from="-13418655" to="-1148152677#0"/>
    <trip id="truck195" type="truck_truck" depart="234.31" departLane="best" departSpeed="max" from="-13451819" to="1094481475#3"/>
    <trip id="truck196" type="truck_truck" depart="235.51" departLane="best" from="-405325379" to="13297309#4"/>
    <trip id="truck197" type="truck_truck" depart="236.71" departLane="best" from="693134371#6" to="13381891#8"/>
    <trip id="truck198" type="truck_truck" depart="237.91" departLane="best" departSpeed="max" from="-13406204#1" to="13438850#2"/>
    <trip id="truck199" type="truck_truck" depart="239.11" departLane="best" from="1306030118#1" to="-13442110#0"/>
    <trip id="truck200" type="truck_truck" depart="240.31" departLane="best" from="13402722#0" to="-1036498467#22"/>
    <trip id="truck201" type="truck_truck" depart="241.52" departLane="best" from="-1352713248#4" to="182043873"/>
    <trip id="truck202" type="truck_truck" depart="242.72" departLane="best" from="-13391687#2" to="59029732"/>
    <trip id="truck203" type="truck_truck" depart="243.92" departLane="best" from="13296674#4" to="-13278789#1"/>
    <trip id="truck204" type="truck_truck" depart="245.12" departLane="best" from="13303064#4" to="405324347#1"/>
    <trip id="truck205" type="truck_truck" depart="246.32" departLane="best" from="1074212421" to="308459797"/>
    <trip id="truck206" type="truck_truck" depart="247.52" departLane="best" from="13422164#8" to="-812594608"/>
    <trip id="truck207" type="truck_truck" depart="248.72" departLane="best" from="-13357583#4" to="46994950#8"/>
    <trip id="truck208" type="truck_truck" depart="249.93" departLane="best" from="405336652#1" to="13374303"/>
    <trip id="truck209" type="truck_truck" depart="251.13" departLane="best" from="13460181#9" to="1250886419#7"/>
    <trip id="truck210" type="truck_truck" depart="252.33" departLane="best" from="401276183#0" to="13309884#3"/>
    <trip id="truck212" type="truck_truck" depart="254.73" departLane="best" from="1148156395#5" to="-13451299#17"/>
    <trip id="truck213" type="truck_truck" depart="255.93" departLane="best" departSpeed="max" from="-13454932#5" to="-13385658#3"/>
    <trip id="truck214" type="truck_truck" depart="257.14" departLane="best" from="182050924#2" to="-13292508#0"/>
    <trip id="truck215" type="truck_truck" depart="258.34" departLane="best" from="13385873#1" to="-13463788#12"/>
    <trip id="truck216" type="truck_truck" depart="259.54" departLane="best" from="-13307402#5" to="-13469408#0"/>
    <trip id="truck217" type="truck_truck" depart="260.74" departLane="best" from="13469408#1" to="-25003162#14"/>
    <trip id="truck218" type="truck_truck" depart="261.94" departLane="best" from="13307784#0" to="13345105#31"/>
    <trip id="truck219" type="truck_truck" depart="263.14" departLane="best" from="-13444032" to="13437907"/>
    <trip id="truck220" type="truck_truck" depart="264.34" departLane="best" from="13450666#3" to="13292672"/>
    <trip id="truck221" type="truck_truck" depart="265.55" departLane="best" from="-685858397#0" to="13307402#22"/>
    <trip id="truck222" type="truck_truck" depart="266.75" departLane="best" from="72029288#1" to="-13401619"/>
    <trip id="truck223" type="truck_truck" depart="267.95" departLane="best" from="766186252#2" to="405337876#0"/>
    <trip id="truck224" type="truck_truck" depart="269.15" departLane="best" from="-13345105#25" to="13438094#1"/>
    <trip id="truck225" type="truck_truck" depart="270.35" departLane="best" from="405325443#1" to="-181425652#17"/>
    <trip id="truck226" type="truck_truck" depart="271.55" departLane="best" from="-44546435#9" to="-1036498467#23"/>
    <trip id="truck227" type="truck_truck" depart="272.76" departLane="best" from="405325398" to="13470930#3"/>
    <trip id="truck228" type="truck_truck" depart="273.96" departLane="best" from="-764132243#1" to="13470630#14"/>
    <trip id="truck229" type="truck_truck" depart="275.16" departLane="best" from="13312602#3" to="13362606#1"/>
    <trip id="truck230" type="truck_truck" depart="276.36" departLane="best" from="-13435323#2" to="13422482#10"/>
    <trip id="truck231" type="truck_truck" depart="277.56" departLane="best" from="1036492888" to="1148156394#2"/>
    <trip id="truck232" type="truck_truck" depart="278.76" departLane="best" from="-401276111#1" to="13422482#7"/>
    <trip id="truck233" type="truck_truck" depart="279.97" departLane="best" from="-599524901#4" to="13378469#0"/>
    <trip id="truck234" type="truck_truck" depart="281.17" departLane="best" from="1148152677#0" to="-13328418#1"/>
    <trip id="truck235" type="truck_truck" depart="282.37" departLane="best" from="-13382800#0" to="-1148152678#1"/>
    <trip id="truck236" type="truck_truck" depart="283.57" departLane="best" from="58811839#3" to="-13318232#2"/>
    <trip id="truck237" type="truck_truck" depart="284.77" departLane="best" from="-1148156394#9" to="13388801#3"/>
    <trip id="truck238" type="truck_truck" depart="285.97" departLane="best" from="-13362606#0" to="1036530140#0"/>
    <trip id="truck239" type="truck_truck" depart="287.17" departLane="best" from="13285204#4" to="-405330524"/>
    <trip id="truck240" type="truck_truck" depart="288.38" departLane="best" from="-181425667#1" to="-405330524"/>
    <trip id="truck241" type="truck_truck" depart="289.58" departLane="best" from="1365257229#1" to="401276176#6"/>
    <trip id="truck242" type="truck_truck" depart="290.78" departLane="best" from="-13460107" to="-13303064#4"/>
    <trip id="truck243" type="truck_truck" depart="291.98" departLane="best" from="1148149225#0" to="13307402#0"/>
    <trip id="truck244" type="truck_truck" depart="293.18" departLane="best" from="976576367#0" to="-400823777#0"/>