<?xml version="1.0" encoding="UTF-8"?>

<!-- generated on 2025-06-23 02:51:24.359794 by randomTrips.py UNKNOWN
<configuration>
    <net-file value="osm.net.xml.gz"/>
    <output-trip-file value="bg_trips.rou.xml"/>
    <route-file value="bg_routes.rou.xml"/>
    <length value="True"/>
    <period value="2.0"/>
</configuration>
-->

<!-- generated on 2025-06-23 02:51:23 by Eclipse SUMO duarouter Version v1_22_0+0728-b12b56f69e2
<duarouterConfiguration xmlns:xsi="http://www.w3.org/2001/XMLSchema-instance" xsi:noNamespaceSchemaLocation="http://sumo.dlr.de/xsd/duarouterConfiguration.xsd">

    <input>
        <net-file value="osm.net.xml.gz"/>
        <route-files value="bg_trips.rou.xml"/>
    </input>

    <output>
        <output-file value="bg_routes.rou.xml"/>
        <alternatives-output value="NUL"/>
    </output>

    <time>
        <begin value="0.0"/>
        <end value="3600.0"/>
    </time>

    <report>
        <no-warnings value="true"/>
        <ignore-errors value="true"/>
        <no-step-log value="true"/>
    </report>

</duarouterConfiguration>
-->

<routes xmlns:xsi="http://www.w3.org/2001/XMLSchema-instance" xsi:noNamespaceSchemaLocation="http://sumo.dlr.de/xsd/routes_file.xsd">
    <vehicle id="0" depart="0.00">
        <route edges="13388801#2 13388801#3 -13388801#3 -13388801#2 13293818#0 13293818#1 45477672#0 45477672#1 45477672#2 45477672#3 729957708 729957709#0 729957709#1 400995093 729957705 729957706#0 -792866925#1 -401276147#1 -401276147#0 -401276174#2 -401276174#1 -401276174#0 -401276136 -401276117#4 -401276117#3 -401276117#2 -401276117#0 -401276132 -401276173 -401276111#1 -401276111#0 -401276122#1 -401276122#0 -401276176#6 -401276176#4 -401276176#2 -401276176#0 -401276177#2 -401276177#1 -401276171#1 -401276171#0 -723813473 -401276164#1 -401276164#0 -723813471 -401276166#1 -401276168#1 -401276168#0 -106367746#4 -106367746#3 -106367746#2 -106367746#1 -401276160 -1381854057 -24706044#6 -24706044#5 -24706044#4 -24706044#3 -24706044#2 -24706044#1 -401276172 1017291518 946724660#0 401279529#0 401279513 25003117#0 25003117#1 405493022#0 1148156397#0 1148156397#3 1148156397#4 1148156397#5 1148156397#6 1148156397#7 -1148156397#7"/>
    </vehicle>
    <vehicle id="1" depart="2.00">
        <route edges="-13460107 13309884#1 -975556227#1 -975556227#0 -13382800#1 -13382800#0 405330550 405330526#0 405330526#1 405330526#2 762787881#1 38851198#0 38851198#1 762787882#0 762787882#1 405330522#0 405330532#0 405330530#0 405330530#1 405330524 -25003162#4 -25003162#3 -25003162#2 -25003162#1 -25003162#0 -13454936#3 -13454936#2 -13454936#1 -13422479#5"/>
    </vehicle>
    <vehicle id="2" depart="4.00">
        <route edges="13454936#1 -13454936#1 -13422479#5 -13422479#4 -13422479#3 -13455078#1 -13455078#0 -13378473#2 -13378473#1 -13378473#0 -1148149225#8 -1148149225#7 -1148149225#6 -1148149225#5 -1148149225#4 -1148149225#3 -1148149225#1 -1148149225#0 -1148149219#1 -1148149219#0 1074212421 1074212422 -1074212418#1 -1074212418#0 -401273819#1 -401273820 -764132243#2 -764132243#1 -764132243#0 -401273821 -764132244 -401273822#2 -401273822#1 -401276160 -1381854057 -24706044#6 -24706044#5 -24706044#4 -24706044#3 -24706044#2 -24706044#1 -401276172 1017291518 946724660#0 946724658#0 946724655 -106343170#7 -106343170#5 -106343170#4 -106343170#3 -106343170#2 -106343170#1 -106343170#0 -400996405 -400996404 -45481507#1 -45481507#0 -45481506 -405493075 -405493090 -405493078 -766186252#4 -766186252#3 -766186252#2 -766186252#1 -766186252#0 -405493093 -405493085 -1386035348 -4944038 889471569 889471570 889471571#0 889471572#0 889471573 -13433114#3 -13433114#2 -13433114#1 -13433114#0 -1318042076 404952602#0 404952602#1 404952602#2 404952602#3 404952602#4 404952602#6 404952602#7 399542189 181425667#0 181425667#1 181425667#2 181425667#3 13419138#0"/>
    </vehicle>
    <vehicle id="3" depart="6.00">
        <route edges="405327878#0 604060306#1 405328878 405328877#0 405328877#1 405328877#3 405328877#4 59028911#2 59028911#3 59028911#4 59028911#5 59028911#6 59028911#7 59028911#8 604060307#0 604060307#1 1270471238 46968328#0 46968328#1 46968328#2 46968328#3 46968328#4 1051035134#0 1051035134#1 405337818#0 405336655#1 405336655#2 405336652#0 405336652#1 405336661#0 405336661#1 405336661#3 405336661#4 405336661#5 405336661#6 1221691599 405336642 405336657#0 405336657#1 405336657#2 405336657#3 405336657#4 405336639#0 405336639#1 405336664#0 405336664#3 405336664#4 405336644 405336660 1036527249#0 1036527249#1 25003116 405337880#1 405337880#2 405337880#3 405337880#4 405337867#0 405337877#0 405337877#1 405337878#0 405337873#0 405337873#1 680311701 405337868 405493036#0 405493036#1 1036530139 405493012 405493043#0 405493043#1 405493043#2 405493004 1094481473 405493034 405493030#0 405493048#0 405493048#1 405493025 405493041 405493017#0 182050922#0 401279512 1083115312 401279511 401279534#0 946725601#0 401279521#0 401279531#0 -1365257229#1 -1365257229#0 -739030982 -41734286 -401279523#1 -401279523#0 -401279518 -401279508 -770601483#1 -400823780 -1043712198 -1043712199 -400823791#1 -400823791#0 -400823782 28312221 72157799#0 72157799#1 -13355898#2 -13355898#1 -1148387481#3 -1148387481#2 -1148387481#1 -1148387481#0 -13355903 1148387480#0 -13308855#1"/>
    </vehicle>
    <vehicle id="4" depart="8.00">
        <route edges="1036498467#17 -25003162#20 -599524901#16 -599524901#14 -599524901#13 -599524901#12 -599524901#11 -599524901#10 -599524901#8 -599524901#7 -599524901#6 -599524901#5 -599524901#4 -599524901#3 -599524901#2 -599524901#0 -406486602#16 -406486602#15 -406486602#14 -406486602#13 -406486602#12 -406486602#11 -406486602#10 -406486602#9 -406486602#8 -406486602#7 -406486602#6 -406486602#4 -406486602#3 -406486602#2 -406486602#1 -406486602#0 -406486605 -406486604#1 -406486604#0 -406486603 -406486606#2 -406486606#1 -406486606#0 -1148149226 -13378473#5 -13378473#4 -13378473#3 -13378473#2 -13378473#1 -13378473#0 -1148149225#8 -1148149225#7 -1148149225#6 -1148149225#5 -1148149225#4 -1148149225#3 -1148149225#1 -1148149225#0 -1148149219#1 -1148149219#0 1074212421 1074212422 -1074212418#1 -1074212418#0 -401273819#1 -401273820 -764132243#2 -764132243#1 -764132243#0 -401273821 -764132244 -401273822#2 -401273822#1 -401276160 -1381854057 -24706044#6 -24706044#5 -24706044#4 -24706044#3 -24706044#2 -24706044#1 -401276172 41735681 41735683#1 401279531#0 -1365257229#1 -1365257229#0 -739030982 -41734286 -401279523#1 -401279523#0 -401279518 -401279508 -770601483#1 -400823780 -1043712198 -1043712199 -400823791#1 -400823791#0 -400823782 28312221 13355891#0 13355891#1 28312155#1 28312155#2 -1148388509"/>
    </vehicle>
    <vehicle id="5" depart="10.00">
        <route edges="-13422164#4 -13422164#3 -13422164#2 -13422164#0 1043712198 400823780 770601483#1 401279508 401279518 401279523#0 401279523#1 41734286 739030982 1365257229#0 1365257229#1 401279526#0 401279510 401279509 401279514 946725603#0 401279529#0 401279513 25003117#0 25003117#1 405493022#0 405493039 1036711156 405493009 405493046 405493027#0 415101867 405493001#0 405493001#1 405493001#2 1094481475#0 1094481475#1 1094481475#2 1094481475#3 405493014 405493032#0 405493032#1 405493032#2 405493019 405493007 1036530140#0 1036530140#1 1036530140#2 405337869 405337870#0 405337870#1 405337870#2 405337876#0 405337876#1 405330566#0 182051722 680311700 685858397#0 685858397#1 685858397#2 405330563 405330564 405330561 405330562 642075391 146653501 146653502 25003134 405330528 13382800#0 13382800#1 13382800#2 -13405976#0 13288763#1 13288763#2"/>
    </vehicle>
    <vehicle id="6" depart="12.00">
        <route edges="-1148387480#1 -1148387480#0 13355903 -1148387482 13395499#0 13395499#1 13395499#2 13395499#3 13395499#4 13395499#5 -399550744#3 -399550744#2 -399550744#1 -399550744#0 -400823777#3 -400823777#2 -400823777#0 -72157799#1 -72157799#0 -28312221 400823782 400823791#0 400823791#1 1043712199 1043712198 400823780 770601483#1 401279508 401279518 401280477#0 401280477#1 401280477#2 401280472 401280473 401280476 401280471 844266946 401280482 401280481 401280479#0 401280479#2 719920981 719920980 401280480#0 401280480#1 401280480#2 405492972 405492989 1002506672 405492967 405492978#0 405492978#1 405492994 13330404#0 13330404#1 976576366#0 976576366#1 976576367#0 405497704#0 687300872 405497708 45481513 844176767 405497700 -13326177#5 -13326177#4 -13326177#3 13292674#0 13292674#1 13292674#2 13292674#3 -13399177#12 -13399177#10"/>
    </vehicle>
    <vehicle id="7" depart="14.00">
        <route edges="13395352#0 13395352#1 13395352#2 13395352#3 405337866#3 405337866#4 405337859#0 405337859#1 405336655#1 405336655#2 405336652#0 405336652#1 405336661#0 405336661#1 405336661#3 405336661#4 405336661#5 405336661#6 1221691599 405336642 405336657#0 405336657#1 405336657#2 405336657#3 405336657#4 405336639#0 405336639#1 405336664#0 405336664#3 -46994950#8 -46994950#7 -46994950#6 -46994950#5 -46994950#4 -46994950#3 -46994950#2 -13288763#3 -13288763#2 13309884#0"/>
    </vehicle>
    <vehicle id="8" depart="16.00">
        <route edges="-13422479#1 -13422479#0 -13430467#1 -13430467#0 -1148149225#8 -1148149225#7 -1148149225#6 -1148149225#5 -1148149225#4 -1148149225#3 -1148149225#1 -1148149225#0 -1148149219#1 -1148149219#0 1074212421 1074212422 -1074212418#1 -1074212418#0 -401273819#1 -401273820 -764132243#2 -764132243#1 -764132243#0 -401273821 -764132244 -401273822#2 -401273822#1 -401276160 -1381854057 -24706044#6 -24706044#5 -24706044#4 -24706044#3 -24706044#2 -24706044#1 -401276172 1017291518 946724660#0 946724658#0 946724655 -106343170#7 -106343170#5 -106343170#4 -106343170#3 -106343170#2 -106343170#1 -106343170#0 -400996405 -400996404 -45481507#1 -45481507#0 -45481506 -405493075 -405493090 -405493078 -766186252#4 -766186252#3 -766186252#2 -766186252#1 -766186252#0 -405493093 -405493085 -1386035348 -4944038 889471569 889471570 889471571#0 405497704#0 687300872 13350024#0 13350024#1 13350024#2 13350024#3 13350024#4 13350024#5"/>
    </vehicle>
    <vehicle id="9" depart="18.00">
        <route edges="25003162#20 1036498467#18 1036498467#19 1036498467#20 1036498467#22 1036498467#23 1036498467#24 1036498467#25 1036498467#26 1036498467#27 182050924#1 182050924#2 182050924#3 182050924#4 405336657#0 405336657#1 405336657#2 405336657#3 405336657#4 405336639#0 405336639#1 405336664#0 405336664#3 405336664#4 405336644 405336660 1036527249#0 1036527249#1 25003116 405337880#1 405337880#2 405337880#3 405337880#4 405337867#0 405337877#0 405337877#1 405337878#0 405337873#0 405337873#1 680311701 405337868 405493036#0 405493036#1 1036530139 405493012 13454932#1 13454932#2 13454932#3 -1148152677#2 -1148152677#1 -1148152677#0 -1148156395#8 -1148156395#7 -1148156395#6 -1148156395#5 -1148156395#4 -1148156395#3 1036711155#11 -1036711155#11"/>
    </vehicle>
    <vehicle id="10" depart="20.00">
        <route edges="25003134 405330528 -405330528 -25003138 -146653502 -146653501 -642075391 -405330562 -405330561 -405330564 -405330563 -685858397#2 -685858397#1 -685858397#0 -680311700 -182051722 -405330566#1 405337873#0 405337873#1 680311701 405337868 405493036#0 405493036#1 1036530139 405493012 405493043#0 405493043#1 405493043#2 405493004 1094481473 405493034 405493030#0 405493048#0 405493048#1 405493025 405493041 405493017#0 182050922#0 401279512 1083115312 401279511 401279534#0 946724658#0 946724655 -106343170#7 -106343170#5 -106343170#4 -13446457#3 -13446457#2 -13446457#1 -13446457#0 13426101#9"/>
    </vehicle>
    <vehicle id="11" depart="22.00">
        <route edges="-30140038#2 405324313#0 405324321 405324347#0 405324347#1 405324346#0 405324322#0 405324343#1 405324343#2 59034260#1 59034260#2 59034260#3 59034260#4 59034260#5 59034260#6 59034260#7 47529228#0 47529228#1 47529228#3 47529228#4 1036524940 1051035134#0 1051035134#1 405337818#0 405336655#1 405336655#2 405336652#0 405336652#1 405336661#0 405336661#1 405336661#3 405336661#4 405336661#5 405336661#6 1221691599 405336642 405336657#0 405336657#1 405336657#2 405336657#3 405336657#4 405336639#0 405336639#1 405336664#0 405336664#3 405336664#4 405336644 405336660 1036527249#0 1036527249#1 25003116 405337880#1 405337880#2 405337880#3 405337880#4 405337867#0 405337877#0 405337877#1 405337878#0 405330566#0 182051722 680311700 685858397#0 685858397#1 685858397#2 405330563 13374305#0 13374305#1 13374305#2 13374305#3 13374305#4 -13374305#4 -13374305#3"/>
    </vehicle>
    <vehicle id="12" depart="24.00">
        <route edges="46994949#5 1270471241#4 58811839#1 58811839#2 58811839#3 58811839#4 58811839#5 58811839#6 58811839#7 58811839#8 58811839#9 405336664#0 405336664#3 405336664#4 405336644 405336660 1036527249#0 1036527249#1 25003116 405337880#1 405337880#2 405337880#3 405337880#4 405337867#0 405337877#0 405337877#1 405337878#0 405337873#0 405337873#1 680311701 405337868 405493036#0 405493036#1 1036530139 405493012 405493043#0 405493043#1 405493043#2 405493004 1094481473 405493034 405493030#0 405493048#0 405493048#1 405493025 405493041 405493017#0 182050922#0 401279512 1083115312 401279511 401279534#0 946725601#0 401279521#0 401279531#0 -1365257229#1 -1365257229#0 -739030982 -41734286 -401279523#1 -401279523#0 401280477#0 401280477#1 401280477#2 401280472 401280473 401280476 401280471 844266946 401280482 -28312110#6 -28312110#5"/>
    </vehicle>
    <vehicle id="13" depart="26.00">
        <route edges="-13315042 1253872733#0 1253872733#1 1148388510#0 1148388510#2 1148388510#3 1148388510#4 28312136 28312137#0 28312137#1 28312137#2 28312137#3 28312137#4 28312137#5 28312137#6 28312137#7 28312137#8 28312137#9 28312137#10 28312137#11 28312137#12 405493056 291312372 405493063 405493054 24706043#0 24706043#1 24706043#2 24706043#3 24706043#5 24706043#7 24706043#8 405493060 1306030118#1 45481505 1306030117 1371026529#0 1371026529#2 45481508#0 45481508#1 45481508#2 45481508#3 45481508#4 45481508#5 45481508#7 1148156396#0 1148156396#1 1148156396#2 1148156396#3 1148156396#4 1148156396#5 1148156396#6 1148156396#7 1148156396#8 1148156396#10 13442370 405493001#0 405493001#1 405493001#2 1094481475#0 1094481475#1 1094481475#2 1094481475#3 405493014 405493032#0 405493032#1 405493032#2 405493019 405493007 1036530140#0 1036530140#1 1036530140#2 405337869 405337870#0 405337870#1 405337870#2 405337876#0 405337876#1 405337879 405337871#0 405337874 405337875#0 405337875#1 405337875#2 -25003116 405336663#1 405336663#2 405336663#3 1036527247 1036527250#0 1036527250#1 1036527250#2 1036527250#3 1036527250#4 1036527250#5 693134371#0 693134371#1 693134371#2 693134371#3 693134371#4 693134371#5 693134371#6 693134371#7 693134371#8 693134371#9 693134371#11 693134371#12 693134371#13 693134371#14 693134371#15 693134371#16 693134371#17 693134371#18 -13315403#1"/>
    </vehicle>
    <vehicle id="14" depart="28.00">
        <route edges="399542659 405497657#0 -13350024#8 -13350024#5 -13350024#4 -13350024#3 -13350024#2 -13350024#1 -13350024#0 405497708 45481513 844176767 405497700 -13326177#5 -13326177#4 -13326177#3 -13326177#2 -13326177#1 -13326177#0 13469511#6 13469511#8 13469511#9 13469511#10 13469511#11 1148156395#0 1148156395#1 1148156395#2 1148156395#3 1148156395#4 1148156395#5 1148156395#6 1148156395#7 1148156395#8 1148152677#0 1148152677#1 1148152677#2 -13454932#3 -13454932#2 -13454932#1 405493032#0 405493032#1 405493032#2 405493019 405493007 1036530140#0 1036530140#1 1036530140#2 405337869 405337870#0 405337870#1 405337870#2 405337876#0 405337876#1 405337879 405337871#0 405337874 405337875#0 405337875#1 405337875#2 -25003116 405336663#1 405336663#2 405336663#3 1036527247 1036527250#0 1036527250#1 1036527250#2 1036527250#3 1036527250#4 13303529#0 13363721#0 13363721#1 13363721#2"/>
    </vehicle>
    <vehicle id="15" depart="30.00">
        <route edges="25003162#12 -25003162#12 -25003162#11 13406206#3 13401801#0 13401801#1 13401801#3 46994950#1 46994950#2 46994950#3 46994950#4 46994950#5 46994950#6 46994950#7 46994950#8 405336664#4 405336644 405336660 1036527249#0 1036527249#1 25003116 405337880#1 405337880#2 405337880#3 405337880#4 405337867#0 405337877#0 405337877#1 405337878#0 405337873#0 405337873#1 680311701 405337868 405493036#0 405493036#1 1036530139 405493012 405493043#0 405493043#1 405493043#2 405493004 1094481473 405493034 405493030#0 405493070#0 -1148156396#10 -1148156396#8 -1148156396#7 -1148156396#6 -1148156396#5 -1148156396#4 -1148156396#3 -1148156396#2 -1148156396#1 -1148156396#0 -45481508#7 -45481508#5 -45481508#4 -45481508#3 -45481508#2 -45481508#1 -45481508#0 -1371026529#2 13448848#0 13448848#1 13448848#2"/>
    </vehicle>
    <vehicle id="17" depart="34.00">
        <route edges="-44555612#1 -44555612#0 -13426101#7 -28312110#21 -28312110#20 -28312110#19 -28312110#18 -28312110#17 -28312110#16 -28312110#14 -28312110#13 -28312110#12 -28312110#11 -28312110#10 -28312110#9 -28312110#8 -28312110#7 401280481 401280479#0 401280479#2 719920981 -13315040#4 -13315040#3 -13315040#2 -13315040#1 -13315040#0 13315040#0 13315040#1 13315040#2"/>
    </vehicle>
    <vehicle id="18" depart="36.00">
        <route edges="30140038#0 -30140038#2 405324313#0 405324321 405324347#0 405324347#1 405324346#0 405324322#0 405324343#1 405324343#2 59034260#1 59034260#2 59034260#3 59034260#4 59034260#5 59034260#6 59034260#7 47529228#0 47529228#1 47529228#3 47529228#4 1036524940 1051035134#0 1051035134#1 405337818#0 405336655#1 405336655#2 405336652#0 405336652#1 405336661#0 405336661#1 405336661#3 405336661#4 405336661#5 405336661#6 1221691599 405336642 405336657#0 405336657#1 405336657#2 405336657#3 405336657#4 405336639#0 405336639#1 405336664#0 405336664#3 405336664#4 405336644 405336660 1036527249#0 1036527249#1 25003116 405337880#1 405337880#2 405337880#3 405337880#4 405337867#0 405337877#0 405337877#1 405337878#0 405337873#0 405337873#1 680311701 405337868 405493036#0 405493036#1 1036530139 405493012 405493043#0 405493043#1 405493043#2 405493004 1094481473 405493034 405493030#0 405493070#0 -1148156396#10 -1148156396#8 -1148156396#7 -1148156396#6 -1148156396#5 -1148156396#4 -1148156396#3 -1148156396#2 -1148156396#1 -1148156396#0 -45481508#7 -45481508#5 -45481508#4 -45481508#3 -45481508#2 -45481508#1 13399177#5 13377751#1"/>
    </vehicle>
    <vehicle id="19" depart="38.00">
        <route edges="401280472 401280473 -401280473 -401280472 -401280477#2 -401280477#1 -401280477#0 401279523#0 401279523#1 41734286 739030982 1365257229#0 1365257229#1 401279526#0 401279510 401279509 401279514 946725603#0 41735693#0 24706048 401276172 24706044#1 24706044#2 24706044#3 24706044#4 24706044#5 24706044#6 1381854057 401276160 401273822#0 401273822#2 764132244 401273821 764132243#0 764132243#1 764132243#2 401273820 401273819#0 1074212418#0 1074212418#1 1074212428 1148149219#0 1148149219#1 1148149225#0 1148149225#1 1148149225#3 1148149225#4 1148149225#5 1148149225#6 1148149225#7 1148149225#8 13378473#0 13378473#1 13378473#2 13378473#3 13378473#4 13378473#5 1148149226 406486606#0 406486606#1 406486606#2 406486603 406486604#0 406486604#1 406486605 406486602#0 406486602#1 406486602#2 406486602#3 406486602#4 406486602#6 406486602#7 406486602#8 406486602#9 406486602#10 406486602#11 406486602#12 406486602#13 406486602#14 406486602#15 406486602#16 599524902#0 599524902#1 1036498467#10 13328422"/>
    </vehicle>
    <vehicle id="20" depart="40.00">
        <route edges="13435426#2 13435426#3 -13295613 1036498467#3 1036498467#4 1036498467#5 1036498467#6 1036498467#7 1036498467#8 -599524902#1 -599524902#0 599524901#0 599524901#2 599524901#3 599524901#4 599524901#5 599524901#6 599524901#7 599524901#8 599524901#10 599524901#11 599524901#12 599524901#13 599524901#14 599524901#16 -25003162#19 -25003162#18 -25003162#17 -25003162#16 1270471241#0 1270471241#1 1270471241#2 1270471241#4 -13288346#2"/>
    </vehicle>
    <vehicle id="21" depart="42.00">
        <route edges="-13424365#0 13424365#0 13424365#1 13424365#2 13424365#3 13424365#4 -13326177#5 -13326177#4 -13326177#3 -13326177#2 -13326177#1 -13326177#0 13469511#6 13469511#8 13469511#9 13469511#10 13469511#11 1148156395#0 1148156395#1 1148156395#2 1148156395#3 1148156395#4 1148156395#5 1148156395#6 1148156395#7 1148156395#8 1148152677#0 1148152677#1 1148152677#2 -13454932#3 -13454932#2 -13454932#1 405493032#0 405493032#1 405493032#2 405493019 405493007 1036530140#0 1036530140#1 1036530140#2 405337869 405337870#0 405337870#1 405337870#2 405337876#0 405337876#1 405330566#0 182051722 680311700 685858397#0 685858397#1 685858397#2 405330563 405330564 405330561 405330562 642075391 146653501 146653502 25003134 405330528 405330550 405330526#0 405330526#1 405330526#2 762787881#1 13394378#0 13394378#2 13394378#3 13394378#4 13394378#5 46994949#0 -13463794"/>
    </vehicle>
    <vehicle id="22" depart="44.00">
        <route edges="-13307402#9 -13307402#8 -13307402#7 -13307402#6 -13307402#5 -13307402#4 -13307402#3 -13307402#2 -13307402#1 -13307402#0 58811839#2 58811839#3 58811839#4 58811839#5 58811839#6 58811839#7 58811839#8 58811839#9 405336664#0 405336664#3 405336664#4 405336644 405336660 1036527249#0 1036527249#1 25003116 405337880#1 405337880#2 405337880#3 405337880#4 405337867#0 405337877#0 405337877#1 405337878#0 405337873#0 405337873#1 680311701 405337868 405493036#0 405493036#1 1036530139 405493012 405493043#0 405493043#1 405493043#2 405493004 1094481473 405493034 405493030#0 405493048#0 405493048#1 405493025 405493041 405493017#0 182050922#0 401279512 1083115312 401279511 401279534#0 946724658#0 946724655 -106343170#7 -106343170#5 -106343170#4 -106343170#3 -106343170#2 -106343170#1 -106343170#0 -13381898#2 -13381898#1 -13381898#0 -13426101#9"/>
    </vehicle>
    <vehicle id="23" depart="46.00">
        <route edges="-13317075#3 -13317075#2 -13317075#1 -13317075#0 -405328874#0 -405328872#2 405327163#0 405327163#2 405327163#3 405327112 72156342#0 72156342#1 1036497907#0 1036497907#1 405327100 405327138#0 405327138#1 405327138#2 405327138#3 405327128#0 405327128#1 405327107 976212202#0 976212202#1 405327101 405327153 405327102 405327123 405327146 -13463788#4 -13463788#3 -13463788#2 -13463788#1 -13460181#9 -13460181#8 -13460181#7 -13460181#6 -13460181#4 -13460181#3 -13460181#2"/>
    </vehicle>
    <vehicle id="24" depart="48.00">
        <route edges="13385658#3 13385658#4 24706044#6 1381854057 401276160 106367746#0 106367746#2 106367746#3 106367746#4 401276168#0 401276168#1 401276166#1 723813471 401276164#0 401276164#1 723813473 401276171#0 401276171#1 401276177#1 401276177#2 401276176#0 401276176#2 401276176#4 401276176#6 401276122#0 401276122#1 401276111#0 401276111#1 401276173 401276132 401276117#0 401276117#2 401276117#3 401276117#4 401276136 401276174#0 401276174#1 401276174#2 401276147#0 401276147#1 792866925#0 308459802 723813466#0 723813466#1 723813468 400995091 308459800 401272918 308459798 1034776064#0 1034776064#1 401273099#0 401273099#1 401273099#2 401273099#3 401273099#4 401273099#5 401273099#6 401273099#7 401273099#8 401273099#9 401273099#10 401273097#0 401273097#1 401273097#2 -405325434#2 -405325434#0 -1352713250 -405325391#2 -405325391#1 -405325391#0 -405325420 -405325402#1 -405325402#0 -405325445#2 -405325445#1"/>
    </vehicle>
    <vehicle id="25" depart="50.00">
        <route edges="-405493073#5 -405493073#4 -405493073#3 -405493073#2 -405493073#0 -405493068#1 405493070#0 -1148156396#10 -1148156396#8 -1148156396#7 -1148156396#6 -1148156396#5 -1148156396#4 -1148156396#3 -1148156396#2 -1148156396#1 -1148156396#0 -45481508#7 -45481508#5 -45481508#4 -45481508#3 -45481508#2 -45481508#1 -45481508#0 -1371026529#2 -1371026529#0 -1306030117 1306030116 -1306030118#1 -1306030118#0 -405493078 -766186252#4 -766186252#3 -766186252#2 -766186252#1 -766186252#0 -405493093 -405493085 -1386035348 -4944038 889471569 889471570 889471571#0 889471572#0 889471573 -13433114#3 -13433114#2 -13433114#1 -13433114#0 -1318042076 404952602#0 404952602#1 404952602#2 404952602#3 404952602#4 404952602#6 404952602#7 399542189 181425667#0 181425667#1 181425667#2 -13403140#1"/>
    </vehicle>
    <vehicle id="26" depart="52.00">
        <route edges="-13453134 -13422479#1 -13422479#0 -13430467#1 -13430467#0 -1148149225#8 -1148149225#7 -1148149225#6 -1148149225#5 -1148149225#4 -1148149225#3 -1148149225#1 -1148149225#0 -1148149219#1 -1148149219#0 1074212421 1074212422 -1074212418#1 -1074212418#0 -401273819#1 -401273820 -764132243#2 -764132243#1 -764132243#0 -401273821 -764132244 -401273822#2 -401273822#1 -401276160 -1381854057 -24706044#6 -24706044#5 -24706044#4 -24706044#3 -24706044#2 -24706044#1 -401276172 1017291518 946724660#0 946724658#0 946724655 -106343170#7 -106343170#5 -106343170#4 -106343170#3 -106343170#2 -106343170#1 -106343170#0 -400996405 -400996404 -45481507#1 -45481507#0 -45481506 -405493075 -405493090 -405493078 -766186252#4 -766186252#3 -766186252#2 -766186252#1 -766186252#0 -405493093 -405493085 -1386035348 -4944038 889471569 889471570 889471571#0 889471572#0 889471573 -13433114#3 -13433114#2 -13433114#1 -13433114#0 -1318042076 404952602#0 404952602#1 404952602#2 404952602#3 404952602#4 404952602#6 404952602#7 399542189 399541855 724306874#0 724306874#1 648979728 648979716#1 648979703#0 399652507 28275171#0 44546433#1-AddedOnRampEdge 44546433#1 1342318502 4233413"/>
    </vehicle>
    <vehicle id="27" depart="54.00">
        <route edges="13394376#4 13394376#6 -405328877#1 -405328877#0 -405328878 -13317075#22 -13317075#21 -13317075#20 -13317075#19 -13317075#18 -13317075#16 -13317075#15 -13317075#14 -13317075#13 -13317075#12 -13317075#11 -13317075#10 -13317075#9 -13317075#8 -13317075#7 -13317075#6 -13317075#5 -13317075#4 -13317075#3 -13317075#2 -13317075#1 -13317075#0 -405328874#0 -405328872#2 405327163#0 405327163#2 405327163#3 405327112 72156342#0 72156342#1 1036497907#0 1036497907#1 405327100 405327138#0 405327138#1 405327138#2 405327138#3 405327128#0 405327128#1 405327107 976212202#0 976212202#1 405327101 405327153 405327102 405327123 405327146 405327115#0 405327115#1 405327115#2 405327099 405327151#0 405327151#1 405327151#2 405327167#0 405327167#1 405325427#0 405325427#3 405325427#4 -13373629#3 -13373629#2 -13373629#1 -13373629#0 13373629#0"/>
    </vehicle>
    <vehicle id="28" depart="56.00">
        <route edges="-13381891#7 1036498467#26 1036498467#27 182050924#1 182050924#2 182050924#3 182050924#4 405336657#0 405336657#1 405336657#2 405336657#3 405336657#4 405336639#0 405336639#1 405336664#0 405336664#3 405336664#4 405336644 405336660 1036527249#0 1036527249#1 25003116 405337880#1 405337880#2 405337880#3 405337880#4 405337867#0 405337877#0 405337877#1 405337878#0 405337873#0 405337873#1 680311701 405337868 405493036#0 405493036#1 1036530139 405493012 405493043#0 405493043#1 405493043#2 405493004 1094481473 405493034 405493030#0 405493070#0 -1148156396#10 -1148156396#8 -1148156396#7 -1148156396#6 -1148156396#5 -1148156396#4 -1148156396#3 -1148156396#2 -1148156396#1 -1148156396#0 -45481508#7 -45481508#5 -45481508#4 -45481508#3 -45481508#2 -45481508#1 -45481508#0 -1371026529#2 13448848#0"/>
    </vehicle>
    <vehicle id="29" depart="58.00">
        <route edges="-13378892#2 -13378892#1 -13378892#0 13327955#0 13327955#2 13327955#3 13327955#4 13327955#5 13327955#6 13327955#8 13327955#9 13327955#10 13327955#12 13327955#13 13327955#14 13327955#15 13327955#16 13327955#17 13327955#18 -405325438#3 -405325438#2 -405325438#0 -405325427#3 -405325427#1 401273098#0 401273098#1 401273098#2 401273098#3 401273098#4 401273098#5 401273098#6 401273098#7 401273098#8 401273098#9 401273098#10 401273098#11 401273096 13447908#0 13447908#1 401272921 45477672#0 45477672#1 45477672#2 45477672#3 729957708 729957709#0 729957709#1 400995093 729957705 729957706#0 -792866925#1 -401276147#1 -401276147#0 -401276174#2 -401276174#1 -401276174#0 -401276136 -401276117#4 -401276117#3 -401276117#2 -401276117#0 -401276132 -401276173 -401276111#1 -401276111#0 -401276122#1 -401276122#0 -401276176#6 -401276176#4 -401276176#2 -401276176#0 -401276177#2 -401276177#1 -401276171#1 -401276171#0 -723813473 -401276164#1 -401276164#0 -723813471 -401276166#1 -401276168#1 -401276168#0 -106367746#4 -106367746#3 -106367746#2 -106367746#1 -401276160 -1381854057 -24706044#6 -24706044#5 -24706044#4 -24706044#3 -24706044#2 -24706044#1 -401276172 1017291518 946724660#0 946724658#0 946724655 -106343170#7 -106343170#5 -106343170#4 -106343170#3 -106343170#2 -106343170#1 -106343170#0 -400996405 -400996404 -45481507#1 -45481507#0 -45481506 -405493075 -405493090 -405493078 -766186252#4 -766186252#3 -766186252#2 -766186252#1 -766186252#0 -405493093 -405493085 -1386035348 -4944038 889471569 889471570 889471571#0 889471572#0 889471573 -13433114#3 -13433114#2 -13433114#1 -13433114#0 -1318042076 404952602#0 404952602#1 404952602#2 404952602#3 404952602#4 404952602#6 404952602#7 399542189 399541855 724306874#0 724306874#1 648979728 648979716#1 648979703#0 240035050#0 240035050#1 185930059 44546435#0 44546435#1 44546435#2 44546435#3 44546435#4 44546435#5 44546435#6 44546435#7 44546435#9 44546435#10 -44546435#10 -44546435#9 -44546435#7"/>
    </vehicle>
    <vehicle id="31" depart="62.00">