<?xml version="1.0" encoding="UTF-8"?>

<!-- generated on 2025-06-23 02:51:23.240481 by randomTrips.py UNKNOWN
<configuration>
    <net-file value="osm.net.xml.gz"/>
    <output-trip-file value="bg_trips.rou.xml"/>
    <route-file value="bg_routes.rou.xml"/>
    <length value="True"/>
    <period value="2.0"/>
</configuration>
-->

<routes xmlns:xsi="http://www.w3.org/2001/XMLSchema-instance" xsi:noNamespaceSchemaLocation="http://sumo.dlr.de/xsd/routes_file.xsd">
    <trip id="0" depart="0.00" from="13388801#2" to="-1148156397#7"/>
    <trip id="1" depart="2.00" from="-13460107" to="-13422479#5"/>
    <trip id="2" depart="4.00" from="13454936#1" to="13419138#0"/>
    <trip id="3" depart="6.00" from="405327878#0" to="-13308855#1"/>
    <trip id="4" depart="8.00" from="1036498467#17" to="-1148388509"/>
    <trip id="5" depart="10.00" from="-13422164#4" to="13288763#2"/>
    <trip id="6" depart="12.00" from="-1148387480#1" to="-13399177#10"/>
    <trip id="7" depart="14.00" from="13395352#0" to="13309884#0"/>
    <trip id="8" depart="16.00" from="-13422479#1" to="13350024#5"/>
    <trip id="9" depart="18.00" from="25003162#20" to="-1036711155#11"/>
    <trip id="10" depart="20.00" from="25003134" to="13426101#9"/>
    <trip id="11" depart="22.00" from="-30140038#2" to="-13374305#3"/>
    <trip id="12" depart="24.00" from="46994949#5" to="-28312110#5"/>
    <trip id="13" depart="26.00" from="-13315042" to="-13315403#1"/>
    <trip id="14" depart="28.00" from="399542659" to="13363721#2"/>
    <trip id="15" depart="30.00" from="25003162#12" to="13448848#2"/>
    <trip id="16" depart="32.00" from="13303527#1" to="606531650-AddedOffRampEdge"/>
    <trip id="17" depart="34.00" from="-44555612#1" to="13315040#2"/>
    <trip id="18" depart="36.00" from="30140038#0" to="13377751#1"/>
    <trip id="19" depart="38.00" from="401280472" to="13328422"/>
    <trip id="20" depart="40.00" from="13435426#2" to="-13288346#2"/>
    <trip id="21" depart="42.00" from="-13424365#0" to="-13463794"/>
    <trip id="22" depart="44.00" from="-13307402#9" to="-13426101#9"/>
    <trip id="23" depart="46.00" from="-13317075#3" to="-13460181#2"/>
    <trip id="24" depart="48.00" from="13385658#3" to="-405325445#1"/>
    <trip id="25" depart="50.00" from="-405493073#5" to="-13403140#1"/>
    <trip id="26" depart="52.00" from="-13453134" to="4233413"/>
    <trip id="27" depart="54.00" from="13394376#4" to="13373629#0"/>
    <trip id="28" depart="56.00" from="-13381891#7" to="13448848#0"/>
    <trip id="29" depart="58.00" from="-13378892#2" to="-44546435#7"/>
    <trip id="30" depart="60.00" from="792866926" to="13385873#0"/>
    <trip id="31" depart="62.00" from="13315406" to="13422164#8"/>
    <trip id="32" depart="64.00" from="359618003#0" to="1352713233#0"/>
    <trip id="33" depart="66.00" from="-13425725" to="-1236460945#1"/>
    <trip id="34" depart="68.00" from="-182050924#0" to="-13453134"/>
    <trip id="35" depart="70.00" from="-13406209" to="44546425#0"/>
    <trip id="36" depart="72.00" from="405325437#0" to="-181425664#2"/>
    <trip id="37" depart="74.00" from="13398921" to="-59034260#1"/>
    <trip id="38" depart="76.00" from="405337879" to="1094481474#5"/>
    <trip id="39" depart="78.00" from="-13451299#9" to="-13440739"/>
    <trip id="40" depart="80.00" from="13317075#16" to="-13450213"/>
    <trip id="41" depart="82.00" from="13337809#1" to="405336638#3"/>
    <trip id="42" depart="84.00" from="-642075391" to="-13422164#10"/>
    <trip id="43" depart="86.00" from="976212199#10" to="13291364"/>
    <trip id="44" depart="88.00" from="-13315040#0" to="-13288346#2"/>
    <trip id="45" depart="90.00" from="-13326393#1" to="13381891#12"/>
    <trip id="46" depart="92.00" from="182050924#4" to="1034776064#1"/>
    <trip id="47" depart="94.00" from="-13296674#4" to="-45481508#0"/>
    <trip id="48" depart="96.00" from="970303884" to="13299311#1"/>
    <trip id="49" depart="98.00" from="606531650" to="401279526#0"/>
    <trip id="50" depart="100.00" from="-1148149219#1" to="13444308#1"/>
    <trip id="51" depart="102.00" from="13422164#10" to="13303529#4"/>
    <trip id="52" depart="104.00" from="-13453134" to="13387037#1"/>
    <trip id="53" depart="106.00" from="-13326393#7" to="1058461249#1"/>
    <trip id="54" depart="108.00" from="106343170#5" to="45481508#5"/>
    <trip id="55" depart="110.00" from="405325433#1" to="-13450666#5"/>
    <trip id="56" depart="112.00" from="13288471" to="-13385659#1"/>
    <trip id="57" depart="114.00" from="405337873#0" to="405324347#0"/>
    <trip id="58" depart="116.00" from="-13469511#6" to="13385659#3"/>
    <trip id="59" depart="118.00" from="13373629#0" to="-13373631"/>
    <trip id="60" depart="120.00" from="13469408#0" to="13307402#22"/>
    <trip id="61" depart="122.00" from="149109059#0" to="13299311#1"/>
    <trip id="62" depart="124.00" from="-1036498467#10" to="-24742793#6"/>
    <trip id="63" depart="126.00" from="-1148156394#8" to="405497703"/>
    <trip id="64" depart="128.00" from="405327103#0" to="30140038#3"/>
    <trip id="65" depart="130.00" from="-1352713230" to="-13292675"/>
    <trip id="66" depart="132.00" from="405325445#0" to="44555598"/>
    <trip id="67" depart="134.00" from="-13312266#4" to="124165067"/>
    <trip id="68" depart="136.00" from="-13297781" to="13466331#0"/>
    <trip id="69" depart="138.00" from="13470630#0" to="-13339778#0"/>
    <trip id="70" depart="140.00" from="1148387481#1" to="13314266"/>
    <trip id="71" depart="142.00" from="-13451300#0" to="405324350#1"/>
    <trip id="72" depart="144.00" from="1036498467#26" to="-13406206#1"/>
    <trip id="73" depart="146.00" from="13307402#12" to="13448848#2"/>
    <trip id="74" depart="148.00" from="-13401580#11" to="-181425651#2"/>
    <trip id="75" depart="150.00" from="950292079#0" to="13394378#5"/>
    <trip id="76" depart="152.00" from="1062815218" to="13295613"/>
    <trip id="77" depart="154.00" from="-13337809#1" to="-13422482#0"/>
    <trip id="78" depart="156.00" from="-28312221" to="13350024#0"/>
    <trip id="79" depart="158.00" from="-13426101#13" to="-13422164#3"/>
    <trip id="80" depart="160.00" from="-13303064#1" to="13381891#4"/>
    <trip id="81" depart="162.00" from="-13425725" to="405336663#3"/>
    <trip id="82" depart="164.00" from="401279508" to="-13297781"/>
    <trip id="83" depart="166.00" from="-13435317#5" to="13405976#1"/>
    <trip id="84" depart="168.00" from="-13418660" to="-13345105#31"/>
    <trip id="85" depart="170.00" from="415101867" to="13326393#9"/>
    <trip id="86" depart="172.00" from="1148156397#5" to="181425667#3"/>
    <trip id="87" depart="174.00" from="25003162#14" to="-13394378#3"/>
    <trip id="88" depart="176.00" from="-13317004#4" to="1036530140#2"/>
    <trip id="89" depart="178.00" from="1036498467#27" to="1148152677#4"/>
    <trip id="90" depart="180.00" from="13450213" to="13411531#0"/>
    <trip id="91" depart="182.00" from="72029287#3" to="-13315406"/>
    <trip id="92" depart="184.00" from="-693134371#12" to="-28312243#2"/>
    <trip id="93" depart="186.00" from="401280472" to="-13442107#0"/>
    <trip id="94" depart="188.00" from="-13395352#1" to="1062822399"/>
    <trip id="95" depart="190.00" from="1036498467#17" to="-13460181#6"/>
    <trip id="96" depart="192.00" from="-13442375#0" to="405493068#0"/>
    <trip id="97" depart="194.00" from="1062815221" to="401279534#0"/>
    <trip id="98" depart="196.00" from="13314264" to="-13289598#2"/>
    <trip id="99" depart="198.00" from="976212204#0" to="30140042#4"/>
    <trip id="100" depart="200.00" from="599524901#8" to="405497651"/>
    <trip id="101" depart="202.00" from="399545137" to="-13378893#2"/>
    <trip id="102" depart="204.00" from="1270471239#0" to="-13407893#0"/>
    <trip id="103" depart="206.00" from="-687300875#2" to="-13293818#0"/>
    <trip id="104" depart="208.00" from="-44555628#1" to="693134371#9"/>
    <trip id="105" depart="210.00" from="-13451300#0" to="181425664#2"/>
    <trip id="106" depart="212.00" from="1065148331-AddedOnRampEdge" to="1036498467#1"/>
    <trip id="107" depart="214.00" from="46994950#1" to="946724658#0"/>
    <trip id="108" depart="216.00" from="13315403#3" to="13443616#4"/>
    <trip id="109" depart="218.00" from="-13376891#1" to="-13469511#0"/>
    <trip id="110" depart="220.00" from="599524901#7" to="13332163#2"/>
    <trip id="111" depart="222.00" from="13307784#1" to="13460666#0"/>
    <trip id="112" depart="224.00" from="-13292675" to="13339778#2"/>
    <trip id="113" depart="226.00" from="13289482#0" to="400996405"/>
    <trip id="114" depart="228.00" from="-13377426#6" to="47529228#4"/>
    <trip id="115" depart="230.00" from="-13307784#0" to="-13392734"/>
    <trip id="116" depart="232.00" from="13355169#1" to="13418660"/>
    <trip id="117" depart="234.00" from="-13434840#2" to="-13327955#9"/>
    <trip id="118" depart="236.00" from="405327167#0" to="-13439473#0"/>
    <trip id="119" depart="238.00" from="13355169#0" to="13377915"/>
    <trip id="120" depart="240.00" from="1026947678" to="13339778#1"/>
    <trip id="121" depart="242.00" from="13297613#0" to="415083975#3"/>
    <trip id="122" depart="244.00" from="-13402722#0" to="13442110#1"/>
    <trip id="123" depart="246.00" from="-13435426#1" to="-59034260#1"/>
    <trip id="124" depart="248.00" from="13406206#3" to="-13470630#0"/>
    <trip id="125" depart="250.00" from="-182050924#10" to="13462518#2"/>
    <trip id="126" depart="252.00" from="-13303064#3" to="1074212428"/>
    <trip id="127" depart="254.00" from="976212199#8" to="946725604"/>
    <trip id="128" depart="256.00" from="-13303064#5" to="-13406206#3"/>
    <trip id="129" depart="258.00" from="-13451300#0" to="406486602#8"/>
    <trip id="130" depart="260.00" from="405327113#4" to="405327103#0"/>
    <trip id="131" depart="262.00" from="-405493073#3" to="-13376891#1"/>
    <trip id="132" depart="264.00" from="30140042#3" to="13435316#6"/>
    <trip id="133" depart="266.00" from="13374305#0" to="723822806#0"/>
    <trip id="134" depart="268.00" from="13398921" to="-1036711155#3"/>
    <trip id="135" depart="270.00" from="28275158#0" to="-13469511#8"/>
    <trip id="136" depart="272.00" from="13401580#18" to="42402962-AddedOnRampEdge"/>
    <trip id="137" depart="274.00" from="-13355898#0" to="-13326393#1"/>
    <trip id="138" depart="276.00" from="-13326176#0" to="13315042"/>
    <trip id="139" depart="278.00" from="-13455078#4" to="13367496#1"/>
    <trip id="140" depart="280.00" from="13443616#1" to="-13399852"/>
    <trip id="141" depart="282.00" from="13382800#0" to="-13451294#0"/>
    <trip id="142" depart="284.00" from="1270471241#2" to="405336663#3"/>
    <trip id="143" depart="286.00" from="399541085#0" to="-13314266"/>
    <trip id="144" depart="288.00" from="1036498467#27" to="-13460181#11"/>
    <trip id="145" depart="290.00" from="-1036498467#4" to="13470631#1"/>
    <trip id="146" depart="292.00" from="13385659#2" to="-13448848#0"/>
    <trip id="147" depart="294.00" from="13458551" to="13315040#0"/>
    <trip id="148" depart="296.00" from="1036530139" to="-1073800130"/>
    <trip id="149" depart="298.00" from="-13303527#2" to="405327123"/>
    <trip id="150" depart="300.00" from="405336662#0" to="13312266#2"/>
    <trip id="151" depart="302.00" from="30140042#4" to="13339778#0"/>
    <trip id="152" depart="304.00" from="-13373629#0" to="-13337809#4"/>
    <trip id="153" depart="306.00" from="-1352713233#2" to="405336654#0"/>
    <trip id="154" depart="308.00" from="24707175" to="401279526#0"/>
    <trip id="155" depart="310.00" from="405336653#1" to="-13403140#1"/>
    <trip id="156" depart="312.00" from="-13442110#2" to="-13317075#0"/>
    <trip id="157" depart="314.00" from="181425651#2" to="405327130"/>
    <trip id="158" depart="316.00" from="-723822806#0" to="13378060"/>
    <trip id="159" depart="318.00" from="-13376891#0" to="405497710#0"/>
    <trip id="160" depart="320.00" from="405324313#0" to="608501617"/>
    <trip id="161" depart="322.00" from="25003162#28" to="405327115#0"/>
    <trip id="162" depart="324.00" from="-1148387479#0" to="13453134"/>
    <trip id="163" depart="326.00" from="-25003162#7" to="406486602#12"/>
    <trip id="164" depart="328.00" from="25003109#2" to="404952602#4"/>
    <trip id="165" depart="330.00" from="25003162#28" to="-13451300#1"/>
    <trip id="166" depart="332.00" from="182050922#0" to="-13318196#1"/>
    <trip id="167" depart="334.00" from="405324350#1" to="401276160"/>
    <trip id="168" depart="336.00" from="-13422482#0" to="28275154"/>
    <trip id="169" depart="338.00" from="1148149222#0" to="-13471136#1"/>
    <trip id="170" depart="340.00" from="24706044#2" to="-13422482#14"/>
    <trip id="171" depart="342.00" from="-1148156397#2" to="-13395499#1"/>
    <trip id="172" depart="344.00" from="-25003162#19" to="404952608#0"/>
    <trip id="173" depart="346.00" from="59034260#4" to="-13460181#9"/>
    <trip id="174" depart="348.00" from="13390431#1" to="-599524901#21"/>
    <trip id="175" depart="350.00" from="693134371#15" to="13303529#0"/>
    <trip id="176" depart="352.00" from="44546416" to="-13326393#1"/>
    <trip id="177" depart="354.00" from="604060306#1" to="-13385659#1"/>
    <trip id="178" depart="356.00" from="50110807" to="-13451299#17"/>
    <trip id="179" depart="358.00" from="-13326177#3" to="1051035134#1"/>
    <trip id="180" depart="360.00" from="13448848#2" to="-181425652#17"/>
    <trip id="181" depart="362.00" from="13367496#2" to="13292508#7"/>
    <trip id="182" depart="364.00" from="-46994949#4" to="13328422"/>
    <trip id="183" depart="366.00" from="-13446852#0" to="13438850#1"/>
    <trip id="184" depart="368.00" from="-1036498467#16" to="405493104#3"/>
    <trip id="185" depart="370.00" from="13303649#0" to="13444032"/>
    <trip id="186" depart="372.00" from="13460107" to="13406206#1"/>
    <trip id="187" depart="374.00" from="-405327877" to="-13297781"/>
    <trip id="188" depart="376.00" from="13401619" to="-25003162#24"/>
    <trip id="189" depart="378.00" from="-181425664#0" to="399542659"/>
    <trip id="190" depart="380.00" from="13444032" to="-13470630#11"/>
    <trip id="191" depart="382.00" from="-1352713248#4" to="-693134371#5"/>
    <trip id="192" depart="384.00" from="-693134371#11" to="-13466788#6"/>
    <trip id="193" depart="386.00" from="-13345105#34" to="1026947678"/>
    <trip id="194" depart="388.00" from="44546417" to="13419138#10"/>
    <trip id="195" depart="390.00" from="405336659#3" to="13376891#1"/>
    <trip id="196" depart="392.00" from="-13470630#4" to="13312266#6"/>
    <trip id="197" depart="394.00" from="-1036498467#1" to="-13463788#4"/>
    <trip id="198" depart="396.00" from="1036711155#2" to="1333659000"/>
    <trip id="199" depart="398.00" from="13398921" to="1148149225#4"/>
    <trip id="200" depart="400.00" from="1062815221" to="-13406209"/>
    <trip id="201" depart="402.00" from="1148387479#1" to="405336658#1"/>
    <trip id="202" depart="404.00" from="24706048" to="-13381891#14"/>
    <trip id="203" depart="406.00" from="-13309884#3" to="13293822#0"/>
    <trip id="204" depart="408.00" from="13382796#0" to="-28312110#13"/>
    <trip id="205" depart="410.00" from="28275171#0" to="13461553"/>
    <trip id="206" depart="412.00" from="13411531#0" to="-13422482#0"/>
    <trip id="207" depart="414.00" from="-13399177#4" to="-1148156397#3"/>
    <trip id="208" depart="416.00" from="-13440741" to="1148387479#2"/>
    <trip id="209" depart="418.00" from="400809768" to="-13298736#2"/>
    <trip id="210" depart="420.00" from="-976212199#8" to="13381891#15"/>
    <trip id="211" depart="422.00" from="-13398921" to="13426101#1"/>
    <trip id="212" depart="424.00" from="13278789#0" to="-13438094#0"/>
    <trip id="213" depart="426.00" from="13398921" to="-1036527250#1"/>
    <trip id="214" depart="428.00" from="13463788#0" to="13470630#2"/>
    <trip id="215" depart="430.00" from="-13318232#2" to="1036498467#2"/>
    <trip id="216" depart="432.00" from="-13383739" to="46994949#2"/>
    <trip id="217" depart="434.00" from="13295615#2" to="-13289598#0"/>
    <trip id="218" depart="436.00" from="-13442110#1" to="399544792"/>
    <trip id="219" depart="438.00" from="1074212422" to="24742793#3"/>
    <trip id="220" depart="440.00" from="13403140#0" to="723822806#1"/>
    <trip id="221" depart="442.00" from="13355196#0" to="44555637"/>
    <trip id="222" depart="444.00" from="405327854" to="13374305#1"/>
    <trip id="223" depart="446.00" from="13444032" to="13288763#1"/>
    <trip id="224" depart="448.00" from="30140038#3" to="13312266#6"/>
    <trip id="225" depart="450.00" from="405336638#1" to="13460107"/>
    <trip id="226" depart="452.00" from="1148387480#1" to="-13446917#0"/>
    <trip id="227" depart="454.00" from="-13442107#0" to="13385658#4"/>
    <trip id="228" depart="456.00" from="13470630#0" to="13296674#5"/>
    <trip id="229" depart="458.00" from="13381891#12" to="-13458550#0"/>
    <trip id="230" depart="460.00" from="-13307402#0" to="-13463788#16"/>
    <trip id="231" depart="462.00" from="-13455078#2" to="-182050924#7"/>
    <trip id="232" depart="464.00" from="13307402#21" to="-13355196#1"/>
    <trip id="233" depart="466.00" from="-13426101#9" to="1342413976"/>
    <trip id="234" depart="468.00" from="13435428#1" to="-13296674#1"/>
    <trip id="235" depart="470.00" from="-762787881#1" to="13308774#0"/>
    <trip id="236" depart="472.00" from="1010470145#2" to="-13401801#0"/>
    <trip id="237" depart="474.00" from="1036498467#0" to="405336662#0"/>
    <trip id="238" depart="476.00" from="13337809#0" to="13424365#4"/>
    <trip id="239" depart="478.00" from="401273099#5" to="13469511#0"/>
    <trip id="240" depart="480.00" from="-45481508#1" to="-1036711155#0"/>
    <trip id="241" depart="482.00" from="-359618003#1" to="13463788#0"/>
    <trip id="242" depart="484.00" from="401273098#0" to="45481508#3"/>
    <trip id="243" depart="486.00" from="1026947678" to="13460181#8"/>
    <trip id="244" depart="488.00" from="13309884#4" to="13363721#0"/>
    <trip id="245" depart="490.00" from="-13422479#2" to="-13422164#10"/>
    <trip id="246" depart="492.00" from="1062815214" to="-1148387481#3"/>
    <trip id="247" depart="494.00" from="-28312110#3" to="13419138#5"/>
    <trip id="248" depart="496.00" from="-693134371#18" to="-13378892#1"/>
    <trip id="249" depart="498.00" from="1148156394#4" to="-13337809#4"/>
    <trip id="250" depart="500.00" from="13378473#2" to="-1148387480#1"/>
    <trip id="251" depart="502.00" from="-59028911#7" to="13318196#6"/>
    <trip id="252" depart="504.00" from="-1148387481#1" to="13390431#0"/>
    <trip id="253" depart="506.00" from="-13355900" to="1148149219#1"/>
    <trip id="254" depart="508.00" from="-13289598#2" to="-44546435#10"/>
    <trip id="255" depart="510.00" from="-13411531#0" to="-25003162#12"/>
    <trip id="256" depart="512.00" from="13466788#5" to="-44546435#10"/>
    <trip id="257" depart="514.00" from="13463788#16" to="30140038#3"/>
    <trip id="258" depart="516.00" from="-13444032" to="-13307402#20"/>
    <trip id="259" depart="518.00" from="-1148156394#7" to="13307402#22"/>
    <trip id="260" depart="520.00" from="976576367#0" to="-308459805#1"/>
    <trip id="261" depart="522.00" from="13395352#2" to="181425651#3"/>
    <trip id="262" depart="524.00" from="13395499#2" to="13463788#16"/>
    <trip id="263" depart="526.00" from="44555637" to="-13399177#12"/>
    <trip id="264" depart="528.00" from="-1148156395#2" to="-13373629#0"/>
    <trip id="265" depart="530.00" from="-13345105#18" to="13406204#0"/>
    <trip id="266" depart="532.00" from="13317690" to="-13419140#2"/>
    <trip id="267" depart="534.00" from="13431194#3" to="13469511#11"/>
    <trip id="268" depart="536.00" from="-13381891#14" to="13370189#0"/>
    <trip id="269" depart="538.00" from="13461550" to="-13326393#1"/>
    <trip id="270" depart="540.00" from="28275191#0" to="555320215"/>
    <trip id="271" depart="542.00" from="-13326177#2" to="-1148387479#1"/>
    <trip id="272" depart="544.00" from="-181425651#7" to="13419138#10"/>
    <trip id="273" depart="546.00" from="46994950#3" to="-59034261"/>
    <trip id="274" depart="548.00" from="13442110#0" to="-13303064#4"/>
    <trip id="275" depart="550.00" from="13422482#2" to="13381891#12"/>
    <trip id="276" depart="552.00" from="-13317075#9" to="13470930#10"/>
    <trip id="277" depart="554.00" from="400809770" to="13360602"/>
    <trip id="278" depart="556.00" from="-13337809#1" to="693134371#18"/>
    <trip id="279" depart="558.00" from="181425652#9" to="-30140042#4"/>
    <trip id="280" depart="560.00" from="1036530140#2" to="-405493054"/>
    <trip id="281" depart="562.00" from="13291364" to="-30140038#2"/>
    <trip id="282" depart="564.00" from="399653740" to="28312110#13"/>
    <trip id="283" depart="566.00" from="-13318232#1" to="47529228#4"/>
    <trip id="284" depart="568.00" from="13385658#3" to="28312243#1"/>
    <trip id="285" depart="570.00" from="13435430" to="1062815197"/>
    <trip id="286" depart="572.00" from="13453134" to="58811839#2"/>
    <trip id="287" depart="574.00" from="-13454936#3" to="25003162#10"/>
    <trip id="288" depart="576.00" from="13303529#5" to="123008632"/>
    <trip id="289" depart="578.00" from="1062815214" to="13451294#0"/>
    <trip id="290" depart="580.00" from="-13454932#4" to="400811648"/>
    <trip id="291" depart="582.00" from="30140038#3" to="-13308855#1"/>
    <trip id="292" depart="584.00" from="405327115#2" to="-13438094#0"/>
    <trip id="293" depart="586.00" from="1148152677#1" to="13374303"/>
    <trip id="294" depart="588.00" from="-44555628#1" to="-1148387481#3"/>
    <trip id="295" depart="590.00" from="400809771" to="-13388801#3"/>
    <trip id="296" depart="592.00" from="-13411531#0" to="24707175"/>
    <trip id="297" depart="594.00" from="-30140038#2" to="405327105"/>
    <trip id="298" depart="596.00" from="13435316#1" to="-13460181#10"/>
    <trip id="299" depart="598.00" from="-1094481474#6" to="44555629"/>
    <trip id="300" depart="600.00" from="-13312266#4" to="13444032"/>
    <trip id="301" depart="602.00" from="1270471241#2" to="13464466#3"/>
    <trip id="302" depart="604.00" from="13422482#2" to="13394360"/>
    <trip id="303" depart="606.00" from="1290996265#3" to="182050924#3"/>
    <trip id="304" depart="608.00" from="-13315403#0" to="-13422479#0"/>
    <trip id="305" depart="610.00" from="1342317336" to="-1350437827"/>
    <trip id="306" depart="612.00" from="13330404#1" to="1148156396#5"/>
    <trip id="307" depart="614.00" from="13299311#1" to="1036498467#25"/>
    <trip id="308" depart="616.00" from="13460666#16" to="-25003162#3"/>
    <trip id="309" depart="618.00" from="13435317#0" to="-13454936#3"/>
    <trip id="310" depart="620.00" from="-13443616#5" to="-13327960"/>
    <trip id="311" depart="622.00" from="-13395499#2" to="-13327955#4"/>
    <trip id="312" depart="624.00" from="13303527#0" to="13466788#0"/>
    <trip id="313" depart="626.00" from="-13394360" to="-13418660"/>
    <trip id="314" depart="628.00" from="1250886419#4" to="13446857"/>
    <trip id="315" depart="630.00" from="687300872" to="13297613#1"/>
    <trip id="316" depart="632.00" from="-13462518#2" to="-13315409"/>
    <trip id="317" depart="634.00" from="-13398921" to="-13422482#14"/>
    <trip id="318" depart="636.00" from="-13385873#2" to="-1148149224"/>
    <trip id="319" depart="638.00" from="13303064#4" to="-13458550#0"/>
    <trip id="320" depart="640.00" from="608501617" to="13315403#0"/>
    <trip id="321" depart="642.00" from="13430467#0" to="-13335192#5"/>
    <trip id="322" depart="644.00" from="405324343#1" to="1270471240#6"/>
    <trip id="323" depart="646.00" from="405324350#2" to="13327960"/>
    <trip id="324" depart="648.00" from="1148156395#3" to="1062815217"/>
    <trip id="325" depart="650.00" from="-13392734" to="-13289598#3"/>
    <trip id="326" depart="652.00" from="44546417" to="1148387481#3"/>
    <trip id="327" depart="654.00" from="28312110#3" to="-599524902#0"/>
    <trip id="328" depart="656.00" from="-13303064#9" to="13381891#15"/>
    <trip id="329" depart="658.00" from="-13292508#5" to="-13367497#1"/>
    <trip id="330" depart="660.00" from="13317075#4" to="-13470930#13"/>
    <trip id="331" depart="662.00" from="946724655" to="-13327955#13"/>
    <trip id="332" depart="664.00" from="13469511#11" to="13370189#0"/>
    <trip id="333" depart="666.00" from="182050924#2" to="-13422482#11"/>
    <trip id="334" depart="668.00" from="13297613#0" to="1062822401"/>
    <trip id="335" depart="670.00" from="1062815221" to="401279513"/>
    <trip id="336" depart="672.00" from="808613724" to="-13471136#1"/>
    <trip id="337" depart="674.00" from="13378469#4" to="13373631"/>
    <trip id="338" depart="676.00" from="13458550#0" to="44555628#0"/>
    <trip id="339" depart="678.00" from="-13405976#1" to="-13405976#1"/>
    <trip id="340" depart="680.00" from="13399177#7" to="-13376891#1"/>
    <trip id="341" depart="682.00" from="-13382796#2" to="-13303064#2"/>
    <trip id="342" depart="684.00" from="-1036498467#22" to="1062822401"/>
    <trip id="343" depart="686.00" from="13350105#0" to="-13465288#8"/>
    <trip id="344" depart="688.00" from="-13429875#1" to="13435428#1"/>
    <trip id="345" depart="690.00" from="13435317#0" to="1062822405"/>
    <trip id="346" depart="692.00" from="13422482#1" to="405493073#4"/>
    <trip id="347" depart="694.00" from="182050922#0" to="13378893#2"/>
    <trip id="348" depart="696.00" from="13399177#9" to="406486606#0"/>
    <trip id="349" depart="698.00" from="1036498467#8" to="13308855#1"/>
    <trip id="350" depart="700.00" from="13394376#4" to="405337852#1"/>
    <trip id="351" depart="702.00" from="28312221" to="-13297785"/>
    <trip id="352" depart="704.00" from="-13381891#0" to="-1352713230"/>
    <trip id="353" depart="706.00" from="13461553" to="13326393#1"/>
    <trip id="354" depart="708.00" from="-13464466#0" to="-13328422"/>
    <trip id="355" depart="710.00" from="13422482#12" to="13430467#3"/>
    <trip id="356" depart="712.00" from="44546433#1" to="13285204#1"/>
    <trip id="357" depart="714.00" from="13278771#0" to="-13303649#0"/>
    <trip id="358" depart="716.00" from="-13278771#1" to="1036711155#11"/>
    <trip id="359" depart="718.00" from="-24742793#2" to="-13442107#1"/>
    <trip id="360" depart="720.00" from="-13315040#0" to="50110800"/>
    <trip id="361" depart="722.00" from="30140042#5" to="13328418#1"/>
    <trip id="362" depart="724.00" from="45481505" to="976576365#2"/>
    <trip id="363" depart="726.00" from="13407893#0" to="-13454932#4"/>
    <trip id="364" depart="728.00" from="-13278771#1" to="13463788#7"/>
    <trip id="365" depart="730.00" from="1148156395#8" to="13395352#2"/>
    <trip id="366" depart="732.00" from="405493001#0" to="-13388801#2"/>
    <trip id="367" depart="734.00" from="13337830" to="13382796#7"/>
    <trip id="368" depart="736.00" from="13257596" to="-13312602#3"/>
    <trip id="369" depart="738.00" from="-30140057#1" to="-28275048#0"/>
    <trip id="370" depart="740.00" from="13406204#0" to="401273820"/>
    <trip id="371" depart="742.00" from="-25003162#22" to="1342413976"/>
    <trip id="372" depart="744.00" from="-13463790" to="44546433#1"/>
    <trip id="373" depart="746.00" from="28275048#0" to="13314266"/>
    <trip id="374" depart="748.00" from="1065148331-AddedOnRampEdge" to="-181425664#2"/>
    <trip id="375" depart="750.00" from="-24742793#3" to="599524901#7"/>
    <trip id="376" depart="752.00" from="-693134371#18" to="13292675"/>
    <trip id="377" depart="754.00" from="762787882#1" to="13399177#10"/>
    <trip id="378" depart="756.00" from="13307784#1" to="-900575480#0"/>
    <trip id="379" depart="758.00" from="-13394376#4" to="-405325379"/>
    <trip id="380" depart="760.00" from="13465288#0" to="13379344#0"/>
    <trip id="381" depart="762.00" from="13466788#0" to="-13399852"/>
    <trip id="382" depart="764.00" from="13312602#2" to="405497681"/>
    <trip id="383" depart="766.00" from="1062815218" to="13429875#1"/>
    <trip id="384" depart="768.00" from="-13337809#3" to="606531650-AddedOffRampEdge"/>
    <trip id="385" depart="770.00" from="13373629#0" to="-13435317#4"/>
    <trip id="386" depart="772.00" from="-13377751#1" to="13314553"/>
    <trip id="387" depart="774.00" from="13315040#0" to="-13314553"/>
    <trip id="388" depart="776.00" from="900615017#10" to="405337874"/>
    <trip id="389" depart="778.00" from="1148149223#5" to="-13326399#0"/>
    <trip id="390" depart="780.00" from="30140042#1" to="13278789#1"/>
    <trip id="391" depart="782.00" from="13442370" to="13290140#2"/>
    <trip id="392" depart="784.00" from="-13458550#0" to="30140042#3"/>
    <trip id="393" depart="786.00" from="693134371#11" to="-13438094#0"/>
    <trip id="394" depart="788.00" from="13314266" to="-465420255"/>
    <trip id="395" depart="790.00" from="405493048#0" to="13289598#3"/>
    <trip id="396" depart="792.00" from="405327103#0" to="404952602#3"/>
    <trip id="397" depart="794.00" from="-13460181#12" to="182050922#0"/>
    <trip id="398" depart="796.00" from="-976212204#1" to="406486606#2"/>
    <trip id="399" depart="798.00" from="13292418" to="28275191#0"/>
    <trip id="400" depart="800.00" from="-13462518#2" to="-13469511#2"/>
    <trip id="401" depart="802.00" from="13339778#1" to="976212199#8"/>
    <trip id="402" depart="804.00" from="1270708355" to="-13367496#1"/>
    <trip id="403" depart="806.00" from="13303649#0" to="-30140042#3"/>
    <trip id="404" depart="808.00" from="13315040#0" to="13308855#0"/>
    <trip id="405" depart="810.00" from="1072582978#0" to="-24742793#0"/>
    <trip id="406" depart="812.00" from="-13394378#0" to="13426101#6"/>
    <trip id="407" depart="814.00" from="13326393#1" to="-13430467#2"/>
    <trip id="408" depart="816.00" from="1365257229#0" to="-13285118#1"/>
    <trip id="409" depart="818.00" from="13460181#5" to="13435323#1"/>
    <trip id="410" depart="820.00" from="25003162#30" to="-46994949#3"/>