<additional>
    <inductionLoop id="det_-106343170#7_0" lane="-106343170#7_0" pos="50.61" freq="60" file="detector_output.xml"/>
    <inductionLoop id="det_-106343170#7_1" lane="-106343170#7_1" pos="50.61" freq="60" file="detector_output.xml"/>
    <inductionLoop id="det_-106367746#1_0" lane="-106367746#1_0" pos="19.37" freq="60" file="detector_output.xml"/>
    <inductionLoop id="det_-106367746#1_1" lane="-106367746#1_1" pos="19.37" freq="60" file="detector_output.xml"/>
    <inductionLoop id="det_-106367746#1_2" lane="-106367746#1_2" pos="19.37" freq="60" file="detector_output.xml"/>
    <inductionLoop id="det_-1148149218#0_0" lane="-1148149218#0_0" pos="53.29" freq="60" file="detector_output.xml"/>
    <inductionLoop id="det_-1148156397#2_0" lane="-1148156397#2_0" pos="60.72" freq="60" file="detector_output.xml"/>
    <inductionLoop id="det_-1270471240#3_0" lane="-1270471240#3_0" pos="122.22" freq="60" file="detector_output.xml"/>
    <inductionLoop id="det_-1270708356#1_0" lane="-1270708356#1_0" pos="35.38" freq="60" file="detector_output.xml"/>
    <inductionLoop id="det_-1285596082_0" lane="-1285596082_0" pos="29.11" freq="60" file="detector_output.xml"/>
    <inductionLoop id="det_-1306030118#0_0" lane="-1306030118#0_0" pos="43.53" freq="60" file="detector_output.xml"/>
    <inductionLoop id="det_-1318042076_0" lane="-1318042076_0" pos="53.54" freq="60" file="detector_output.xml"/>
    <inductionLoop id="det_-1318042076_1" lane="-1318042076_1" pos="53.54" freq="60" file="detector_output.xml"/>
    <inductionLoop id="det_-1318042076_2" lane="-1318042076_2" pos="53.54" freq="60" file="detector_output.xml"/>
    <inductionLoop id="det_-13338902_0" lane="-13338902_0" pos="35.36" freq="60" file="detector_output.xml"/>
    <inductionLoop id="det_-13338902_1" lane="-13338902_1" pos="35.36" freq="60" file="detector_output.xml"/>
    <inductionLoop id="det_-13374305#0_0" lane="-13374305#0_0" pos="188.35" freq="60" file="detector_output.xml"/>
    <inductionLoop id="det_-13382800#0_0" lane="-13382800#0_0" pos="85.04" freq="60" file="detector_output.xml"/>
    <inductionLoop id="det_-13422482#0_0" lane="-13422482#0_0" pos="436.37" freq="60" file="detector_output.xml"/>
    <inductionLoop id="det_-13426101#3_0" lane="-13426101#3_0" pos="51.61" freq="60" file="detector_output.xml"/>
    <inductionLoop id="det_-13452420#2_0" lane="-13452420#2_0" pos="18.08" freq="60" file="detector_output.xml"/>
    <inductionLoop id="det_-13464466#0_0" lane="-13464466#0_0" pos="77.57" freq="60" file="detector_output.xml"/>
    <inductionLoop id="det_-1350437827_0" lane="-1350437827_0" pos="298.73" freq="60" file="detector_output.xml"/>
    <inductionLoop id="det_-1352713248#1_0" lane="-1352713248#1_0" pos="47.43" freq="60" file="detector_output.xml"/>
    <inductionLoop id="det_-24706043#6_0" lane="-24706043#6_0" pos="51.93" freq="60" file="detector_output.xml"/>
    <inductionLoop id="det_-28312221_0" lane="-28312221_0" pos="84.52" freq="60" file="detector_output.xml"/>
    <inductionLoop id="det_-28312221_1" lane="-28312221_1" pos="84.52" freq="60" file="detector_output.xml"/>
    <inductionLoop id="det_-28312221_2" lane="-28312221_2" pos="84.52" freq="60" file="detector_output.xml"/>
    <inductionLoop id="det_-28312243#0_0" lane="-28312243#0_0" pos="42.71" freq="60" file="detector_output.xml"/>
    <inductionLoop id="det_-291312372_0" lane="-291312372_0" pos="37.15" freq="60" file="detector_output.xml"/>
    <inductionLoop id="det_-291312372_1" lane="-291312372_1" pos="37.15" freq="60" file="detector_output.xml"/>
    <inductionLoop id="det_-291312372_2" lane="-291312372_2" pos="37.15" freq="60" file="detector_output.xml"/>
    <inductionLoop id="det_-30140038#2_0" lane="-30140038#2_0" pos="195.07" freq="60" file="detector_output.xml"/>
    <inductionLoop id="det_-364999398#0_0" lane="-364999398#0_0" pos="31.72" freq="60" file="detector_output.xml"/>
    <inductionLoop id="det_-390810268_0" lane="-390810268_0" pos="138.22" freq="60" file="detector_output.xml"/>
    <inductionLoop id="det_-390810271#0_0" lane="-390810271#0_0" pos="27.94" freq="60" file="detector_output.xml"/>
    <inductionLoop id="det_-39497560#0_0" lane="-39497560#0_0" pos="90.07" freq="60" file="detector_output.xml"/>
    <inductionLoop id="det_-39497566_0" lane="-39497566_0" pos="69.63" freq="60" file="detector_output.xml"/>
    <inductionLoop id="det_-399550750_0" lane="-399550750_0" pos="1.1800000000000002" freq="60" file="detector_output.xml"/>
    <inductionLoop id="det_-399550750_1" lane="-399550750_1" pos="1.1800000000000002" freq="60" file="detector_output.xml"/>
    <inductionLoop id="det_-399550750_2" lane="-399550750_2" pos="1.1800000000000002" freq="60" file="detector_output.xml"/>
    <inductionLoop id="det_-400823782_0" lane="-400823782_0" pos="44.88" freq="60" file="detector_output.xml"/>
    <inductionLoop id="det_-400823782_1" lane="-400823782_1" pos="44.88" freq="60" file="detector_output.xml"/>
    <inductionLoop id="det_-400823782_2" lane="-400823782_2" pos="44.88" freq="60" file="detector_output.xml"/>
    <inductionLoop id="det_-400823782_3" lane="-400823782_3" pos="44.88" freq="60" file="detector_output.xml"/>
    <inductionLoop id="det_-401273819#1_0" lane="-401273819#1_0" pos="31.549999999999997" freq="60" file="detector_output.xml"/>
    <inductionLoop id="det_-401273819#1_1" lane="-401273819#1_1" pos="31.549999999999997" freq="60" file="detector_output.xml"/>
    <inductionLoop id="det_-401273819#1_2" lane="-401273819#1_2" pos="31.549999999999997" freq="60" file="detector_output.xml"/>
    <inductionLoop id="det_-401273822#1_0" lane="-401273822#1_0" pos="8.47" freq="60" file="detector_output.xml"/>
    <inductionLoop id="det_-401273822#1_1" lane="-401273822#1_1" pos="8.47" freq="60" file="detector_output.xml"/>
    <inductionLoop id="det_-401273822#1_2" lane="-401273822#1_2" pos="8.47" freq="60" file="detector_output.xml"/>
    <inductionLoop id="det_-401276132_0" lane="-401276132_0" pos="18.75" freq="60" file="detector_output.xml"/>
    <inductionLoop id="det_-401276132_1" lane="-401276132_1" pos="18.75" freq="60" file="detector_output.xml"/>
    <inductionLoop id="det_-401276132_2" lane="-401276132_2" pos="18.75" freq="60" file="detector_output.xml"/>
    <inductionLoop id="det_-401276172_0" lane="-401276172_0" pos="62.24" freq="60" file="detector_output.xml"/>
    <inductionLoop id="det_-401276172_1" lane="-401276172_1" pos="62.24" freq="60" file="detector_output.xml"/>
    <inductionLoop id="det_-401276172_2" lane="-401276172_2" pos="62.24" freq="60" file="detector_output.xml"/>
    <inductionLoop id="det_-401279508_0" lane="-401279508_0" pos="32.66" freq="60" file="detector_output.xml"/>
    <inductionLoop id="det_-401279508_1" lane="-401279508_1" pos="32.66" freq="60" file="detector_output.xml"/>
    <inductionLoop id="det_-401279508_2" lane="-401279508_2" pos="32.66" freq="60" file="detector_output.xml"/>
    <inductionLoop id="det_-401279523#0_0" lane="-401279523#0_0" pos="10.39" freq="60" file="detector_output.xml"/>
    <inductionLoop id="det_-401279523#0_1" lane="-401279523#0_1" pos="10.39" freq="60" file="detector_output.xml"/>
    <inductionLoop id="det_-401279523#0_2" lane="-401279523#0_2" pos="10.39" freq="60" file="detector_output.xml"/>
    <inductionLoop id="det_-401279523#0_3" lane="-401279523#0_3" pos="10.39" freq="60" file="detector_output.xml"/>
    <inductionLoop id="det_-401280477#0_0" lane="-401280477#0_0" pos="28.66" freq="60" file="detector_output.xml"/>
    <inductionLoop id="det_-401280477#0_1" lane="-401280477#0_1" pos="28.66" freq="60" file="detector_output.xml"/>
    <inductionLoop id="det_-401280477#0_2" lane="-401280477#0_2" pos="28.66" freq="60" file="detector_output.xml"/>
    <inductionLoop id="det_-404952602#0_0" lane="-404952602#0_0" pos="48.54" freq="60" file="detector_output.xml"/>
    <inductionLoop id="det_-404952602#0_1" lane="-404952602#0_1" pos="48.54" freq="60" file="detector_output.xml"/>
    <inductionLoop id="det_-405324343#0_0" lane="-405324343#0_0" pos="77.78" freq="60" file="detector_output.xml"/>
    <inductionLoop id="det_-405324343#0_1" lane="-405324343#0_1" pos="77.78" freq="60" file="detector_output.xml"/>
    <inductionLoop id="det_-405324348#2_0" lane="-405324348#2_0" pos="27.95" freq="60" file="detector_output.xml"/>
    <inductionLoop id="det_-405324348#2_1" lane="-405324348#2_1" pos="27.95" freq="60" file="detector_output.xml"/>
    <inductionLoop id="det_-405324348#2_2" lane="-405324348#2_2" pos="27.95" freq="60" file="detector_output.xml"/>
    <inductionLoop id="det_-405324348#2_3" lane="-405324348#2_3" pos="27.95" freq="60" file="detector_output.xml"/>
    <inductionLoop id="det_-405325394_0" lane="-405325394_0" pos="34.69" freq="60" file="detector_output.xml"/>
    <inductionLoop id="det_-405325416_0" lane="-405325416_0" pos="41.82" freq="60" file="detector_output.xml"/>
    <inductionLoop id="det_-405325427#1_0" lane="-405325427#1_0" pos="29.7" freq="60" file="detector_output.xml"/>
    <inductionLoop id="det_-405328872#2_0" lane="-405328872#2_0" pos="35.02" freq="60" file="detector_output.xml"/>
    <inductionLoop id="det_-405328872#2_1" lane="-405328872#2_1" pos="35.02" freq="60" file="detector_output.xml"/>
    <inductionLoop id="det_-405328872#2_2" lane="-405328872#2_2" pos="35.02" freq="60" file="detector_output.xml"/>
    <inductionLoop id="det_-405330532#1_0" lane="-405330532#1_0" pos="70.74" freq="60" file="detector_output.xml"/>
    <inductionLoop id="det_-405330544#0_0" lane="-405330544#0_0" pos="63.31" freq="60" file="detector_output.xml"/>
    <inductionLoop id="det_-405330544#0_1" lane="-405330544#0_1" pos="63.31" freq="60" file="detector_output.xml"/>
    <inductionLoop id="det_-405330544#0_2" lane="-405330544#0_2" pos="63.31" freq="60" file="detector_output.xml"/>
    <inductionLoop id="det_-405330550_0" lane="-405330550_0" pos="26.21" freq="60" file="detector_output.xml"/>
    <inductionLoop id="det_-405330550_1" lane="-405330550_1" pos="26.21" freq="60" file="detector_output.xml"/>
    <inductionLoop id="det_-405330550_2" lane="-405330550_2" pos="26.21" freq="60" file="detector_output.xml"/>
    <inductionLoop id="det_-405330561_0" lane="-405330561_0" pos="50.78" freq="60" file="detector_output.xml"/>
    <inductionLoop id="det_-405330561_1" lane="-405330561_1" pos="50.78" freq="60" file="detector_output.xml"/>
    <inductionLoop id="det_-405330561_2" lane="-405330561_2" pos="50.78" freq="60" file="detector_output.xml"/>
    <inductionLoop id="det_-405330564_0" lane="-405330564_0" pos="73.68" freq="60" file="detector_output.xml"/>
    <inductionLoop id="det_-405330564_1" lane="-405330564_1" pos="73.68" freq="60" file="detector_output.xml"/>
    <inductionLoop id="det_-405330566#1_0" lane="-405330566#1_0" pos="44.59" freq="60" file="detector_output.xml"/>
    <inductionLoop id="det_-405492967_0" lane="-405492967_0" pos="35.76" freq="60" file="detector_output.xml"/>
    <inductionLoop id="det_-405492967_1" lane="-405492967_1" pos="35.76" freq="60" file="detector_output.xml"/>
    <inductionLoop id="det_-405492967_2" lane="-405492967_2" pos="35.76" freq="60" file="detector_output.xml"/>
    <inductionLoop id="det_-405493068#1_0" lane="-405493068#1_0" pos="18.51" freq="60" file="detector_output.xml"/>
    <inductionLoop id="det_-405493068#1_1" lane="-405493068#1_1" pos="18.51" freq="60" file="detector_output.xml"/>
    <inductionLoop id="det_-405493090_0" lane="-405493090_0" pos="41.64" freq="60" file="detector_output.xml"/>
    <inductionLoop id="det_-405493090_1" lane="-405493090_1" pos="41.64" freq="60" file="detector_output.xml"/>
    <inductionLoop id="det_-405493090_2" lane="-405493090_2" pos="41.64" freq="60" file="detector_output.xml"/>
    <inductionLoop id="det_-405497701#0_0" lane="-405497701#0_0" pos="113.52" freq="60" file="detector_output.xml"/>
    <inductionLoop id="det_-405497701#0_1" lane="-405497701#0_1" pos="113.52" freq="60" file="detector_output.xml"/>
    <inductionLoop id="det_-406486605_0" lane="-406486605_0" pos="20.3" freq="60" file="detector_output.xml"/>
    <inductionLoop id="det_-406486605_1" lane="-406486605_1" pos="20.3" freq="60" file="detector_output.xml"/>
    <inductionLoop id="det_-415101868_0" lane="-415101868_0" pos="41.61" freq="60" file="detector_output.xml"/>
    <inductionLoop id="det_-415101868_1" lane="-415101868_1" pos="41.61" freq="60" file="detector_output.xml"/>
    <inductionLoop id="det_-45477671#1_0" lane="-45477671#1_0" pos="13.15" freq="60" file="detector_output.xml"/>
    <inductionLoop id="det_-45477671#1_1" lane="-45477671#1_1" pos="13.15" freq="60" file="detector_output.xml"/>
    <inductionLoop id="det_-45477671#1_2" lane="-45477671#1_2" pos="13.15" freq="60" file="detector_output.xml"/>
    <inductionLoop id="det_-45477671#1_3" lane="-45477671#1_3" pos="13.15" freq="60" file="detector_output.xml"/>
    <inductionLoop id="det_-45481507#0_0" lane="-45481507#0_0" pos="64.85" freq="60" file="detector_output.xml"/>
    <inductionLoop id="det_-45481507#0_1" lane="-45481507#0_1" pos="64.85" freq="60" file="detector_output.xml"/>
    <inductionLoop id="det_-45481507#0_2" lane="-45481507#0_2" pos="64.85" freq="60" file="detector_output.xml"/>
    <inductionLoop id="det_-604060306#0_0" lane="-604060306#0_0" pos="78.91" freq="60" file="detector_output.xml"/>
    <inductionLoop id="det_-649609264_0" lane="-649609264_0" pos="138.24" freq="60" file="detector_output.xml"/>
    <inductionLoop id="det_-72157799#0_0" lane="-72157799#0_0" pos="9.47" freq="60" file="detector_output.xml"/>
    <inductionLoop id="det_-72157799#0_1" lane="-72157799#0_1" pos="9.47" freq="60" file="detector_output.xml"/>
    <inductionLoop id="det_-72157799#0_2" lane="-72157799#0_2" pos="9.47" freq="60" file="detector_output.xml"/>
    <inductionLoop id="det_-72157799#0_3" lane="-72157799#0_3" pos="9.47" freq="60" file="detector_output.xml"/>
    <inductionLoop id="det_-723702402#0_0" lane="-723702402#0_0" pos="14.95" freq="60" file="detector_output.xml"/>
    <inductionLoop id="det_-771550014_0" lane="-771550014_0" pos="22.53" freq="60" file="detector_output.xml"/>
    <inductionLoop id="det_-844168528_0" lane="-844168528_0" pos="38.57" freq="60" file="detector_output.xml"/>
    <inductionLoop id="det_-976212199#1_0" lane="-976212199#1_0" pos="37.57" freq="60" file="detector_output.xml"/>
    <inductionLoop id="det_1002506672_0" lane="1002506672_0" pos="21.36" freq="60" file="detector_output.xml"/>
    <inductionLoop id="det_1002506672_1" lane="1002506672_1" pos="21.36" freq="60" file="detector_output.xml"/>
    <inductionLoop id="det_1002506672_2" lane="1002506672_2" pos="21.36" freq="60" file="detector_output.xml"/>
    <inductionLoop id="det_1022491854#1_0" lane="1022491854#1_0" pos="62.25" freq="60" file="detector_output.xml"/>
    <inductionLoop id="det_1022491854#1_1" lane="1022491854#1_1" pos="62.25" freq="60" file="detector_output.xml"/>
    <inductionLoop id="det_1022491854#1_2" lane="1022491854#1_2" pos="62.25" freq="60" file="detector_output.xml"/>
    <inductionLoop id="det_1022491854#1_3" lane="1022491854#1_3" pos="62.25" freq="60" file="detector_output.xml"/>
    <inductionLoop id="det_1026947679#0_0" lane="1026947679#0_0" pos="36.03" freq="60" file="detector_output.xml"/>
    <inductionLoop id="det_1026947679#0_1" lane="1026947679#0_1" pos="36.03" freq="60" file="detector_output.xml"/>
    <inductionLoop id="det_1026947679#0_2" lane="1026947679#0_2" pos="36.03" freq="60" file="detector_output.xml"/>
    <inductionLoop id="det_1034776064#1_0" lane="1034776064#1_0" pos="48.95" freq="60" file="detector_output.xml"/>
    <inductionLoop id="det_1034776064#1_1" lane="1034776064#1_1" pos="48.95" freq="60" file="detector_output.xml"/>
    <inductionLoop id="det_1034776064#1_2" lane="1034776064#1_2" pos="48.95" freq="60" file="detector_output.xml"/>
    <inductionLoop id="det_1051037174#0_0" lane="1051037174#0_0" pos="47.49" freq="60" file="detector_output.xml"/>
    <inductionLoop id="det_1051037174#0_1" lane="1051037174#0_1" pos="47.49" freq="60" file="detector_output.xml"/>
    <inductionLoop id="det_106343170#5_0" lane="106343170#5_0" pos="67.81" freq="60" file="detector_output.xml"/>
    <inductionLoop id="det_106343170#5_1" lane="106343170#5_1" pos="67.81" freq="60" file="detector_output.xml"/>
    <inductionLoop id="det_13293818#1_0" lane="13293818#1_0" pos="27.11" freq="60" file="detector_output.xml"/>
    <inductionLoop id="det_13293822#7_0" lane="13293822#7_0" pos="42.02" freq="60" file="detector_output.xml"/>
    <inductionLoop id="det_13299221#1_0" lane="13299221#1_0" pos="85.06" freq="60" file="detector_output.xml"/>
    <inductionLoop id="det_13326177#5_0" lane="13326177#5_0" pos="28.34" freq="60" file="detector_output.xml"/>
    <inductionLoop id="det_13350024#7_0" lane="13350024#7_0" pos="16.64" freq="60" file="detector_output.xml"/>
    <inductionLoop id="det_13363719#1_0" lane="13363719#1_0" pos="67.93" freq="60" file="detector_output.xml"/>
    <inductionLoop id="det_13378892#2_0" lane="13378892#2_0" pos="21.26" freq="60" file="detector_output.xml"/>
    <inductionLoop id="det_13395499#5_0" lane="13395499#5_0" pos="12.23" freq="60" file="detector_output.xml"/>
    <inductionLoop id="det_13419617#2_0" lane="13419617#2_0" pos="46.13" freq="60" file="detector_output.xml"/>
    <inductionLoop id="det_13424365#4_0" lane="13424365#4_0" pos="37.72" freq="60" file="detector_output.xml"/>
    <inductionLoop id="det_13426101#12_0" lane="13426101#12_0" pos="104.22" freq="60" file="detector_output.xml"/>
    <inductionLoop id="det_13435317#5_0" lane="13435317#5_0" pos="102.68" freq="60" file="detector_output.xml"/>
    <inductionLoop id="det_13466195#0_0" lane="13466195#0_0" pos="139.18" freq="60" file="detector_output.xml"/>
    <inductionLoop id="det_1350437828#0_0" lane="1350437828#0_0" pos="24.44" freq="60" file="detector_output.xml"/>
    <inductionLoop id="det_1350437828#0_1" lane="1350437828#0_1" pos="24.44" freq="60" file="detector_output.xml"/>
    <inductionLoop id="det_1352713233#0_0" lane="1352713233#0_0" pos="247.08" freq="60" file="detector_output.xml"/>
    <inductionLoop id="det_1352713247#3_0" lane="1352713247#3_0" pos="12.48" freq="60" file="detector_output.xml"/>
    <inductionLoop id="det_1352713247#3_1" lane="1352713247#3_1" pos="12.48" freq="60" file="detector_output.xml"/>
    <inductionLoop id="det_181425640_0" lane="181425640_0" pos="59.12" freq="60" file="detector_output.xml"/>
    <inductionLoop id="det_181425640_1" lane="181425640_1" pos="59.12" freq="60" file="detector_output.xml"/>
    <inductionLoop id="det_181425640_2" lane="181425640_2" pos="59.12" freq="60" file="detector_output.xml"/>
    <inductionLoop id="det_181425652#18_0" lane="181425652#18_0" pos="31.509999999999998" freq="60" file="detector_output.xml"/>
    <inductionLoop id="det_181425674#0_0" lane="181425674#0_0" pos="26.89" freq="60" file="detector_output.xml"/>
    <inductionLoop id="det_181425674#0_1" lane="181425674#0_1" pos="26.89" freq="60" file="detector_output.xml"/>
    <inductionLoop id="det_181425674#0_2" lane="181425674#0_2" pos="26.89" freq="60" file="detector_output.xml"/>
    <inductionLoop id="det_181425674#0_3" lane="181425674#0_3" pos="26.89" freq="60" file="detector_output.xml"/>
    <inductionLoop id="det_182043865#3_0" lane="182043865#3_0" pos="42.0" freq="60" file="detector_output.xml"/>
    <inductionLoop id="det_182043865#3_1" lane="182043865#3_1" pos="42.0" freq="60" file="detector_output.xml"/>
    <inductionLoop id="det_185930057#0_0" lane="185930057#0_0" pos="46.05" freq="60" file="detector_output.xml"/>
    <inductionLoop id="det_185930057#0_1" lane="185930057#0_1" pos="46.05" freq="60" file="detector_output.xml"/>
    <inductionLoop id="det_185930057#0_2" lane="185930057#0_2" pos="46.05" freq="60" file="detector_output.xml"/>
    <inductionLoop id="det_24706043#3_0" lane="24706043#3_0" pos="52.3" freq="60" file="detector_output.xml"/>
    <inductionLoop id="det_24706043#8_0" lane="24706043#8_0" pos="36.13" freq="60" file="detector_output.xml"/>
    <inductionLoop id="det_24706048_0" lane="24706048_0" pos="102.28" freq="60" file="detector_output.xml"/>
    <inductionLoop id="det_24706048_1" lane="24706048_1" pos="102.28" freq="60" file="detector_output.xml"/>
    <inductionLoop id="det_28312221_0" lane="28312221_0" pos="83.02" freq="60" file="detector_output.xml"/>
    <inductionLoop id="det_28312221_1" lane="28312221_1" pos="83.02" freq="60" file="detector_output.xml"/>
    <inductionLoop id="det_28312221_2" lane="28312221_2" pos="83.02" freq="60" file="detector_output.xml"/>
    <inductionLoop id="det_364999396#8_0" lane="364999396#8_0" pos="43.73" freq="60" file="detector_output.xml"/>
    <inductionLoop id="det_399544793#0_0" lane="399544793#0_0" pos="56.66" freq="60" file="detector_output.xml"/>
    <inductionLoop id="det_399544793#0_1" lane="399544793#0_1" pos="56.66" freq="60" file="detector_output.xml"/>
    <inductionLoop id="det_399544793#0_2" lane="399544793#0_2" pos="56.66" freq="60" file="detector_output.xml"/>
    <inductionLoop id="det_399550744#3_0" lane="399550744#3_0" pos="4.67" freq="60" file="detector_output.xml"/>
    <inductionLoop id="det_399550744#3_1" lane="399550744#3_1" pos="4.67" freq="60" file="detector_output.xml"/>
    <inductionLoop id="det_399550744#3_2" lane="399550744#3_2" pos="4.67" freq="60" file="detector_output.xml"/>
    <inductionLoop id="det_399550744#3_3" lane="399550744#3_3" pos="4.67" freq="60" file="detector_output.xml"/>
    <inductionLoop id="det_400809768_0" lane="400809768_0" pos="55.89" freq="60" file="detector_output.xml"/>
    <inductionLoop id="det_400809768_1" lane="400809768_1" pos="55.89" freq="60" file="detector_output.xml"/>
    <inductionLoop id="det_400809768_2" lane="400809768_2" pos="55.89" freq="60" file="detector_output.xml"/>
    <inductionLoop id="det_400995091_0" lane="400995091_0" pos="39.15" freq="60" file="detector_output.xml"/>
    <inductionLoop id="det_400995091_1" lane="400995091_1" pos="39.15" freq="60" file="detector_output.xml"/>
    <inductionLoop id="det_400995091_2" lane="400995091_2" pos="39.15" freq="60" file="detector_output.xml"/>
    <inductionLoop id="det_401272921_0" lane="401272921_0" pos="36.69" freq="60" file="detector_output.xml"/>
    <inductionLoop id="det_401272921_1" lane="401272921_1" pos="36.69" freq="60" file="detector_output.xml"/>
    <inductionLoop id="det_401272921_2" lane="401272921_2" pos="36.69" freq="60" file="detector_output.xml"/>
    <inductionLoop id="det_401273096_0" lane="401273096_0" pos="49.54" freq="60" file="detector_output.xml"/>
    <inductionLoop id="det_401273096_1" lane="401273096_1" pos="49.54" freq="60" file="detector_output.xml"/>
    <inductionLoop id="det_401273096_2" lane="401273096_2" pos="49.54" freq="60" file="detector_output.xml"/>
    <inductionLoop id="det_401273097#2_0" lane="401273097#2_0" pos="29.28" freq="60" file="detector_output.xml"/>
    <inductionLoop id="det_401273097#2_1" lane="401273097#2_1" pos="29.28" freq="60" file="detector_output.xml"/>
    <inductionLoop id="det_401273097#2_2" lane="401273097#2_2" pos="29.28" freq="60" file="detector_output.xml"/>
    <inductionLoop id="det_401273820_0" lane="401273820_0" pos="29.35" freq="60" file="detector_output.xml"/>
    <inductionLoop id="det_401273820_1" lane="401273820_1" pos="29.35" freq="60" file="detector_output.xml"/>
    <inductionLoop id="det_401273820_2" lane="401273820_2" pos="29.35" freq="60" file="detector_output.xml"/>
    <inductionLoop id="det_401276160_0" lane="401276160_0" pos="40.35" freq="60" file="detector_output.xml"/>
    <inductionLoop id="det_401276160_1" lane="401276160_1" pos="40.35" freq="60" file="detector_output.xml"/>
    <inductionLoop id="det_401276160_2" lane="401276160_2" pos="40.35" freq="60" file="detector_output.xml"/>
    <inductionLoop id="det_401276160_3" lane="401276160_3" pos="40.35" freq="60" file="detector_output.xml"/>
    <inductionLoop id="det_401276173_0" lane="401276173_0" pos="19.71" freq="60" file="detector_output.xml"/>
    <inductionLoop id="det_401276173_1" lane="401276173_1" pos="19.71" freq="60" file="detector_output.xml"/>
    <inductionLoop id="det_401276173_2" lane="401276173_2" pos="19.71" freq="60" file="detector_output.xml"/>
    <inductionLoop id="det_401276183#0_0" lane="401276183#0_0" pos="24.15" freq="60" file="detector_output.xml"/>
    <inductionLoop id="det_401276183#0_1" lane="401276183#0_1" pos="24.15" freq="60" file="detector_output.xml"/>
    <inductionLoop id="det_401276183#0_2" lane="401276183#0_2" pos="24.15" freq="60" file="detector_output.xml"/>
    <inductionLoop id="det_401276183#0_3" lane="401276183#0_3" pos="24.15" freq="60" file="detector_output.xml"/>
    <inductionLoop id="det_401279518_0" lane="401279518_0" pos="51.38" freq="60" file="detector_output.xml"/>
    <inductionLoop id="det_401279518_1" lane="401279518_1" pos="51.38" freq="60" file="detector_output.xml"/>
    <inductionLoop id="det_401279518_2" lane="401279518_2" pos="51.38" freq="60" file="detector_output.xml"/>
    <inductionLoop id="det_401279518_3" lane="401279518_3" pos="51.38" freq="60" file="detector_output.xml"/>
    <inductionLoop id="det_401279521#0_0" lane="401279521#0_0" pos="34.91" freq="60" file="detector_output.xml"/>
    <inductionLoop id="det_401279521#0_1" lane="401279521#0_1" pos="34.91" freq="60" file="detector_output.xml"/>
    <inductionLoop id="det_401279521#0_2" lane="401279521#0_2" pos="34.91" freq="60" file="detector_output.xml"/>
    <inductionLoop id="det_401279521#0_3" lane="401279521#0_3" pos="34.91" freq="60" file="detector_output.xml"/>
    <inductionLoop id="det_401279526#0_0" lane="401279526#0_0" pos="62.24" freq="60" file="detector_output.xml"/>
    <inductionLoop id="det_401279526#0_1" lane="401279526#0_1" pos="62.24" freq="60" file="detector_output.xml"/>
    <inductionLoop id="det_401279526#0_2" lane="401279526#0_2" pos="62.24" freq="60" file="detector_output.xml"/>
    <inductionLoop id="det_401279534#0_0" lane="401279534#0_0" pos="66.39" freq="60" file="detector_output.xml"/>
    <inductionLoop id="det_401279534#0_1" lane="401279534#0_1" pos="66.39" freq="60" file="detector_output.xml"/>
    <inductionLoop id="det_401279534#0_2" lane="401279534#0_2" pos="66.39" freq="60" file="detector_output.xml"/>
    <inductionLoop id="det_401279534#0_3" lane="401279534#0_3" pos="66.39" freq="60" file="detector_output.xml"/>
    <inductionLoop id="det_404952608#0_0" lane="404952608#0_0" pos="51.28" freq="60" file="detector_output.xml"/>
    <inductionLoop id="det_404952608#0_1" lane="404952608#0_1" pos="51.28" freq="60" file="detector_output.xml"/>
    <inductionLoop id="det_404952608#0_2" lane="404952608#0_2" pos="51.28" freq="60" file="detector_output.xml"/>
    <inductionLoop id="det_404952608#0_3" lane="404952608#0_3" pos="51.28" freq="60" file="detector_output.xml"/>
    <inductionLoop id="det_404952608#0_4" lane="404952608#0_4" pos="51.28" freq="60" file="detector_output.xml"/>
    <inductionLoop id="det_405324314#0_0" lane="405324314#0_0" pos="23.26" freq="60" file="detector_output.xml"/>
    <inductionLoop id="det_405324314#0_1" lane="405324314#0_1" pos="23.26" freq="60" file="detector_output.xml"/>
    <inductionLoop id="det_405324314#0_2" lane="405324314#0_2" pos="23.26" freq="60" file="detector_output.xml"/>
    <inductionLoop id="det_405324318#0_0" lane="405324318#0_0" pos="21.07" freq="60" file="detector_output.xml"/>
    <inductionLoop id="det_405324318#0_1" lane="405324318#0_1" pos="21.07" freq="60" file="detector_output.xml"/>
    <inductionLoop id="det_405324318#0_2" lane="405324318#0_2" pos="21.07" freq="60" file="detector_output.xml"/>
    <inductionLoop id="det_405324339#0_0" lane="405324339#0_0" pos="16.75" freq="60" file="detector_output.xml"/>
    <inductionLoop id="det_405324339#0_1" lane="405324339#0_1" pos="16.75" freq="60" file="detector_output.xml"/>
    <inductionLoop id="det_405324339#0_2" lane="405324339#0_2" pos="16.75" freq="60" file="detector_output.xml"/>
    <inductionLoop id="det_405324342#0_0" lane="405324342#0_0" pos="31.979999999999997" freq="60" file="detector_output.xml"/>
    <inductionLoop id="det_405324342#0_1" lane="405324342#0_1" pos="31.979999999999997" freq="60" file="detector_output.xml"/>
    <inductionLoop id="det_405324342#0_2" lane="405324342#0_2" pos="31.979999999999997" freq="60" file="detector_output.xml"/>
    <inductionLoop id="det_405324346#0_0" lane="405324346#0_0" pos="26.93" freq="60" file="detector_output.xml"/>
    <inductionLoop id="det_405324346#0_1" lane="405324346#0_1" pos="26.93" freq="60" file="detector_output.xml"/>
    <inductionLoop id="det_405324346#0_2" lane="405324346#0_2" pos="26.93" freq="60" file="detector_output.xml"/>
    <inductionLoop id="det_405325398_0" lane="405325398_0" pos="59.53" freq="60" file="detector_output.xml"/>
    <inductionLoop id="det_405325398_1" lane="405325398_1" pos="59.53" freq="60" file="detector_output.xml"/>
    <inductionLoop id="det_405325398_2" lane="405325398_2" pos="59.53" freq="60" file="detector_output.xml"/>
    <inductionLoop id="det_405325433#1_0" lane="405325433#1_0" pos="45.0" freq="60" file="detector_output.xml"/>
    <inductionLoop id="det_405325433#1_1" lane="405325433#1_1" pos="45.0" freq="60" file="detector_output.xml"/>
    <inductionLoop id="det_405325433#1_2" lane="405325433#1_2" pos="45.0" freq="60" file="detector_output.xml"/>
    <inductionLoop id="det_405325434#1_0" lane="405325434#1_0" pos="46.65" freq="60" file="detector_output.xml"/>
    <inductionLoop id="det_405325434#1_1" lane="405325434#1_1" pos="46.65" freq="60" file="detector_output.xml"/>
    <inductionLoop id="det_405325434#1_2" lane="405325434#1_2" pos="46.65" freq="60" file="detector_output.xml"/>
    <inductionLoop id="det_405327109#0_0" lane="405327109#0_0" pos="15.48" freq="60" file="detector_output.xml"/>
    <inductionLoop id="det_405327109#0_1" lane="405327109#0_1" pos="15.48" freq="60" file="detector_output.xml"/>