<additional>
    <inductionLoop id="det_-13380841#0_0" lane="-13380841#0_0" pos="18.2" freq="60" file="detector_output.xml"/>
    <inductionLoop id="det_-13394199#0_0" lane="-13394199#0_0" pos="15.670000000000002" freq="60" file="detector_output.xml"/>
    <inductionLoop id="det_-405329950#1_0" lane="-405329950#1_0" pos="21.21" freq="60" file="detector_output.xml"/>
    <inductionLoop id="det_-405329950#1_1" lane="-405329950#1_1" pos="21.21" freq="60" file="detector_output.xml"/>
    <inductionLoop id="det_-405337844_0" lane="-405337844_0" pos="110.79" freq="60" file="detector_output.xml"/>
    <inductionLoop id="det_-405337844_1" lane="-405337844_1" pos="110.79" freq="60" file="detector_output.xml"/>
    <inductionLoop id="det_-405337861#1_0" lane="-405337861#1_0" pos="138.83" freq="60" file="detector_output.xml"/>
    <inductionLoop id="det_-405337861#1_1" lane="-405337861#1_1" pos="138.83" freq="60" file="detector_output.xml"/>
    <inductionLoop id="det_13299221#1_0" lane="13299221#1_0" pos="85.06" freq="60" file="detector_output.xml"/>
    <inductionLoop id="det_13363719#1_0" lane="13363719#1_0" pos="67.93" freq="60" file="detector_output.xml"/>
    <inductionLoop id="det_13399273#13_0" lane="13399273#13_0" pos="41.73" freq="60" file="detector_output.xml"/>
    <inductionLoop id="det_13407257#3_0" lane="13407257#3_0" pos="58.78" freq="60" file="detector_output.xml"/>
    <inductionLoop id="det_13460287#18_0" lane="13460287#18_0" pos="53.91" freq="60" file="detector_output.xml"/>
    <inductionLoop id="det_405329954#0_0" lane="405329954#0_0" pos="29.06" freq="60" file="detector_output.xml"/>
    <inductionLoop id="det_405329954#0_1" lane="405329954#0_1" pos="29.06" freq="60" file="detector_output.xml"/>
    <inductionLoop id="det_405336643#0_0" lane="405336643#0_0" pos="19.96" freq="60" file="detector_output.xml"/>
    <inductionLoop id="det_405336643#0_1" lane="405336643#0_1" pos="19.96" freq="60" file="detector_output.xml"/>
    <inductionLoop id="det_405336643#0_2" lane="405336643#0_2" pos="19.96" freq="60" file="detector_output.xml"/>
    <inductionLoop id="det_405336645#0_0" lane="405336645#0_0" pos="20.03" freq="60" file="detector_output.xml"/>
    <inductionLoop id="det_405336645#0_1" lane="405336645#0_1" pos="20.03" freq="60" file="detector_output.xml"/>
    <inductionLoop id="det_405336645#0_2" lane="405336645#0_2" pos="20.03" freq="60" file="detector_output.xml"/>
    <inductionLoop id="det_405336653#1_0" lane="405336653#1_0" pos="30.9" freq="60" file="detector_output.xml"/>
    <inductionLoop id="det_405336653#1_1" lane="405336653#1_1" pos="30.9" freq="60" file="detector_output.xml"/>
    <inductionLoop id="det_405336653#1_2" lane="405336653#1_2" pos="30.9" freq="60" file="detector_output.xml"/>
    <inductionLoop id="det_405336653#1_3" lane="405336653#1_3" pos="30.9" freq="60" file="detector_output.xml"/>
    <inductionLoop id="det_405336653#1_4" lane="405336653#1_4" pos="30.9" freq="60" file="detector_output.xml"/>
    <inductionLoop id="det_405336656#0_0" lane="405336656#0_0" pos="35.28" freq="60" file="detector_output.xml"/>
    <inductionLoop id="det_405336656#0_1" lane="405336656#0_1" pos="35.28" freq="60" file="detector_output.xml"/>
    <inductionLoop id="det_405336656#0_2" lane="405336656#0_2" pos="35.28" freq="60" file="detector_output.xml"/>
    <inductionLoop id="det_405336656#0_3" lane="405336656#0_3" pos="35.28" freq="60" file="detector_output.xml"/>
    <inductionLoop id="det_405336656#0_4" lane="405336656#0_4" pos="35.28" freq="60" file="detector_output.xml"/>
    <inductionLoop id="det_405337818#0_0" lane="405337818#0_0" pos="32.83" freq="60" file="detector_output.xml"/>
    <inductionLoop id="det_405337818#0_1" lane="405337818#0_1" pos="32.83" freq="60" file="detector_output.xml"/>
    <inductionLoop id="det_405337818#0_2" lane="405337818#0_2" pos="32.83" freq="60" file="detector_output.xml"/>
    <inductionLoop id="det_405337818#0_3" lane="405337818#0_3" pos="32.83" freq="60" file="detector_output.xml"/>
    <inductionLoop id="det_405337818#0_4" lane="405337818#0_4" pos="32.83" freq="60" file="detector_output.xml"/>
    <inductionLoop id="det_405337822_0" lane="405337822_0" pos="160.45" freq="60" file="detector_output.xml"/>
    <inductionLoop id="det_405337822_1" lane="405337822_1" pos="160.45" freq="60" file="detector_output.xml"/>
    <inductionLoop id="det_405337823_0" lane="405337823_0" pos="34.61" freq="60" file="detector_output.xml"/>
    <inductionLoop id="det_405337823_1" lane="405337823_1" pos="34.61" freq="60" file="detector_output.xml"/>
    <inductionLoop id="det_405337823_2" lane="405337823_2" pos="34.61" freq="60" file="detector_output.xml"/>
    <inductionLoop id="det_405337826_0" lane="405337826_0" pos="38.89" freq="60" file="detector_output.xml"/>
    <inductionLoop id="det_405337826_1" lane="405337826_1" pos="38.89" freq="60" file="detector_output.xml"/>
    <inductionLoop id="det_405337826_2" lane="405337826_2" pos="38.89" freq="60" file="detector_output.xml"/>
    <inductionLoop id="det_405337827_0" lane="405337827_0" pos="20.62" freq="60" file="detector_output.xml"/>
    <inductionLoop id="det_405337827_1" lane="405337827_1" pos="20.62" freq="60" file="detector_output.xml"/>
    <inductionLoop id="det_405337827_2" lane="405337827_2" pos="20.62" freq="60" file="detector_output.xml"/>
    <inductionLoop id="det_405337831#1_0" lane="405337831#1_0" pos="56.97" freq="60" file="detector_output.xml"/>
    <inductionLoop id="det_405337831#1_1" lane="405337831#1_1" pos="56.97" freq="60" file="detector_output.xml"/>
    <inductionLoop id="det_405337851_0" lane="405337851_0" pos="87.83" freq="60" file="detector_output.xml"/>
    <inductionLoop id="det_405337851_1" lane="405337851_1" pos="87.83" freq="60" file="detector_output.xml"/>
    <inductionLoop id="det_405337855_0" lane="405337855_0" pos="6.14" freq="60" file="detector_output.xml"/>
    <inductionLoop id="det_405337855_1" lane="405337855_1" pos="6.14" freq="60" file="detector_output.xml"/>
    <inductionLoop id="det_405337859#1_0" lane="405337859#1_0" pos="13.1" freq="60" file="detector_output.xml"/>
    <inductionLoop id="det_405337859#1_1" lane="405337859#1_1" pos="13.1" freq="60" file="detector_output.xml"/>
    <inductionLoop id="det_405337859#1_2" lane="405337859#1_2" pos="13.1" freq="60" file="detector_output.xml"/>
    <inductionLoop id="det_405337859#1_3" lane="405337859#1_3" pos="13.1" freq="60" file="detector_output.xml"/>
    <inductionLoop id="det_405337862#2_0" lane="405337862#2_0" pos="191.72" freq="60" file="detector_output.xml"/>
    <inductionLoop id="det_405337862#2_1" lane="405337862#2_1" pos="191.72" freq="60" file="detector_output.xml"/>
    <inductionLoop id="det_405337863#1_0" lane="405337863#1_0" pos="29.71" freq="60" file="detector_output.xml"/>
    <inductionLoop id="det_405337863#1_1" lane="405337863#1_1" pos="29.71" freq="60" file="detector_output.xml"/>
    <inductionLoop id="det_692908076#12_0" lane="692908076#12_0" pos="8.01" freq="60" file="detector_output.xml"/>
    <inductionLoop id="det_693134371#6_0" lane="693134371#6_0" pos="11.34" freq="60" file="detector_output.xml"/>
</additional>
