<?xml version="1.0" encoding="UTF-8"?>

<!-- generated on 2025-06-25 12:10:47.626631 by osmWebWizard.py UNKNOWN
<configuration>
    <net-file value="/Users/nedasarbalavandeymir/Sumo/2025-06-25-12-09-58/osm.net.xml.gz"/>
    <output-trip-file value="/Users/nedasarbalavandeymir/Sumo/2025-06-25-12-09-58/osm.passenger.trips.xml"/>
    <route-file value="/Users/nedasarbalavandeymir/Sumo/2025-06-25-12-09-58/osm.passenger.rou.xml"/>
    <prefix value="veh"/>
    <trip-attributes value="departLane=&quot;best&quot;"/>
    <fringe-start-attributes value="departSpeed=&quot;max&quot;"/>
    <vehicle-class value="passenger"/>
    <lanes value="True"/>
    <fringe-factor value="5"/>
    <allow-fringe.min-length value="1000.0"/>
    <via-edge-types value="highway.motorway,highway.motorway_link,highway.trunk_link,highway.primary_link,highway.secondary_link,highway.tertiary_link"/>
    <min-distance value="300.0"/>
    <min-distance.fringe value="10.0"/>
    <remove-loops value="True"/>
    <validate value="True"/>
    <insertion-density value="12.0"/>
</configuration>
-->

<!-- generated on 2025-06-25 12:10:47 by Eclipse SUMO duarouter Version 1.22.0
<duarouterConfiguration xmlns:xsi="http://www.w3.org/2001/XMLSchema-instance" xsi:noNamespaceSchemaLocation="http://sumo.dlr.de/xsd/duarouterConfiguration.xsd">

    <input>
        <net-file value="/Users/nedasarbalavandeymir/Sumo/2025-06-25-12-09-58/osm.net.xml.gz"/>
        <route-files value="/Users/nedasarbalavandeymir/Sumo/2025-06-25-12-09-58/osm.passenger.trips.xml"/>
    </input>

    <output>
        <output-file value="/Users/nedasarbalavandeymir/Sumo/2025-06-25-12-09-58/osm.passenger.trips.xml.tmp"/>
        <alternatives-output value="NUL"/>
        <write-trips value="true"/>
    </output>

    <processing>
        <remove-loops value="true"/>
    </processing>

    <time>
        <begin value="0.0"/>
        <end value="3600.0"/>
    </time>

    <report>
        <no-warnings value="true"/>
        <ignore-errors value="true"/>
        <no-step-log value="true"/>
    </report>

</duarouterConfiguration>
-->

<routes xmlns:xsi="http://www.w3.org/2001/XMLSchema-instance" xsi:noNamespaceSchemaLocation="http://sumo.dlr.de/xsd/routes_file.xsd">
    <vType id="veh_passenger" vClass="passenger"/>
    <trip id="veh0" type="veh_passenger" depart="0.00" departLane="best" from="13428024#0" to="-13303647#0"/>
    <trip id="veh1" type="veh_passenger" depart="3.60" departLane="best" from="1355191048#12" to="-13400963#0"/>
    <trip id="veh2" type="veh_passenger" depart="7.20" departLane="best" from="405337858#0" to="-13341080#2"/>
    <trip id="veh3" type="veh_passenger" depart="10.81" departLane="best" from="-13315403#0" to="-13398116"/>
    <trip id="veh4" type="veh_passenger" depart="14.41" departLane="best" from="13442107" to="13380841#3"/>
    <trip id="veh5" type="veh_passenger" depart="18.01" departLane="best" departSpeed="max" from="-13449582#1" to="13399273#7"/>
    <trip id="veh6" type="veh_passenger" depart="21.61" departLane="best" from="405336658#0" to="-13279071#3"/>
    <trip id="veh7" type="veh_passenger" depart="25.22" departLane="best" from="405336656#0" to="-182041036#2"/>
    <trip id="veh8" type="veh_passenger" depart="28.82" departLane="best" from="-692908076#7" to="-13380823#2"/>
    <trip id="veh9" type="veh_passenger" depart="32.42" departLane="best" from="405337858#1" to="405337850"/>
    <trip id="veh10" type="veh_passenger" depart="36.02" departLane="best" from="13353393#4" to="-13399273#9"/>
    <trip id="veh11" type="veh_passenger" depart="39.62" departLane="best" from="405337821" to="13425126"/>
    <trip id="veh12" type="veh_passenger" depart="43.23" departLane="best" from="405336656#0" to="182050923"/>
    <trip id="veh13" type="veh_passenger" depart="46.83" departLane="best" departSpeed="max" from="13363203" to="524847623#1"/>
    <trip id="veh14" type="veh_passenger" depart="50.43" departLane="best" from="1072677711#1" to="13394199#1"/>
    <trip id="veh15" type="veh_passenger" depart="54.03" departLane="best" from="405336665#1" to="13441329"/>
    <trip id="veh16" type="veh_passenger" depart="57.63" departLane="best" from="405337827" to="-13399273#0"/>
    <trip id="veh17" type="veh_passenger" depart="61.24" departLane="best" from="1355191048#8" to="-13315403#5"/>
    <trip id="veh18" type="veh_passenger" depart="64.84" departLane="best" from="-13450213" to="13471584#0"/>
    <trip id="veh19" type="veh_passenger" depart="68.44" departLane="best" from="13346416#1" to="-13407257#0"/>
    <trip id="veh20" type="veh_passenger" depart="72.04" departLane="best" departSpeed="max" from="-13358248#2" to="13460287#14"/>
    <trip id="veh21" type="veh_passenger" depart="75.65" departLane="best" departSpeed="max" from="13425127" to="899699583#7"/>
    <trip id="veh22" type="veh_passenger" depart="79.25" departLane="best" from="1051035134#0" to="-13399273#2"/>
    <trip id="veh23" type="veh_passenger" depart="82.85" departLane="best" from="-13461550" to="405337866#0"/>
    <trip id="veh24" type="veh_passenger" depart="86.45" departLane="best" from="13437128" to="-13428024#1"/>
    <trip id="veh25" type="veh_passenger" depart="90.05" departLane="best" departSpeed="max" from="-13398117" to="182043874#2"/>
    <trip id="veh26" type="veh_passenger" depart="93.66" departLane="best" departSpeed="max" from="-13397473" to="1051037174"/>
    <trip id="veh27" type="veh_passenger" depart="97.26" departLane="best" from="693134371#2" to="13452953#1"/>
    <trip id="veh28" type="veh_passenger" depart="100.86" departLane="best" from="-13380841#1" to="1355191048#18"/>
    <trip id="veh29" type="veh_passenger" depart="104.46" departLane="best" from="405337818#0" to="405336638#7"/>
    <trip id="veh30" type="veh_passenger" depart="108.06" departLane="best" departSpeed="max" from="-13452845" to="-13303649#0"/>
    <trip id="veh31" type="veh_passenger" depart="111.67" departLane="best" departSpeed="max" from="-182050924#8" to="-13452953#8"/>
    <trip id="veh32" type="veh_passenger" depart="115.27" departLane="best" from="-13428028#2" to="405337866#3"/>
    <trip id="veh33" type="veh_passenger" depart="118.87" departLane="best" from="405337838#3" to="-182050924#0"/>
    <trip id="veh34" type="veh_passenger" depart="122.47" departLane="best" from="-13452953#1" to="1072677711#4"/>
    <trip id="veh35" type="veh_passenger" depart="126.08" departLane="best" from="405337862#2" to="13324019"/>
    <trip id="veh36" type="veh_passenger" depart="129.68" departLane="best" from="-13460287#7" to="-13428024#2"/>
    <trip id="veh37" type="veh_passenger" depart="133.28" departLane="best" departSpeed="max" from="13392362#0" to="-13452953#3"/>
    <trip id="veh38" type="veh_passenger" depart="136.88" departLane="best" departSpeed="max" from="13395368" to="405337858#0"/>
    <trip id="veh39" type="veh_passenger" depart="140.48" departLane="best" from="13279071#2" to="-13400963#0"/>
    <trip id="veh40" type="veh_passenger" depart="144.09" departLane="best" from="-899699583#5" to="-13360320#3"/>
    <trip id="veh41" type="veh_passenger" depart="147.69" departLane="best" from="-13360321#3" to="13450207"/>
    <trip id="veh42" type="veh_passenger" depart="151.29" departLane="best" from="405336653#0" to="-13299221#1"/>
    <trip id="veh43" type="veh_passenger" depart="154.89" departLane="best" from="-13331053#0" to="1051037174"/>
    <trip id="veh44" type="veh_passenger" depart="158.50" departLane="best" from="-899699583#4" to="13379536#1"/>
    <trip id="veh46" type="veh_passenger" depart="165.70" departLane="best" from="13461550" to="13380823#4"/>
    <trip id="veh47" type="veh_passenger" depart="169.30" departLane="best" from="-13461550" to="13452953#2"/>
    <trip id="veh48" type="veh_passenger" depart="172.90" departLane="best" from="-13360321#5" to="13315403#12"/>
    <trip id="veh49" type="veh_passenger" depart="176.51" departLane="best" from="13318269#2" to="524847620#1"/>
    <trip id="veh50" type="veh_passenger" depart="180.11" departLane="best" from="405337838#3" to="-13452953#3"/>
    <trip id="veh51" type="veh_passenger" depart="183.71" departLane="best" departSpeed="max" from="13346422#0" to="-13395348"/>
    <trip id="veh52" type="veh_passenger" depart="187.31" departLane="best" from="405337862#1" to="405337831#0"/>
    <trip id="veh53" type="veh_passenger" depart="190.91" departLane="best" departSpeed="max" from="-182043871#1" to="13452953#0"/>
    <trip id="veh54" type="veh_passenger" depart="194.52" departLane="best" from="-13399273#7" to="-13380823#1"/>
    <trip id="veh55" type="veh_passenger" depart="198.12" departLane="best" from="405336638#1" to="13380823#9"/>
    <trip id="veh56" type="veh_passenger" depart="201.72" departLane="best" from="405336645#0" to="13380823#0"/>
    <trip id="veh57" type="veh_passenger" depart="205.32" departLane="best" from="1151395798#0" to="-405329950#1"/>
    <trip id="veh58" type="veh_passenger" depart="208.93" departLane="best" from="-13302901" to="405337863#2"/>
    <trip id="veh59" type="veh_passenger" depart="212.53" departLane="best" from="405337847" to="405336665#0"/>
    <trip id="veh60" type="veh_passenger" depart="216.13" departLane="best" from="-182050924#3" to="-13318269#4"/>
    <trip id="veh61" type="veh_passenger" depart="219.73" departLane="best" from="-13346422#3" to="-692908076#8"/>
    <trip id="veh62" type="veh_passenger" depart="223.33" departLane="best" departSpeed="max" from="-13341074#1" to="25003109#9"/>
    <trip id="veh63" type="veh_passenger" depart="226.94" departLane="best" from="405336638#3" to="-13360321#1"/>
    <trip id="veh64" type="veh_passenger" depart="230.54" departLane="best" departSpeed="max" from="13331049" to="13392362#2"/>
    <trip id="veh65" type="veh_passenger" depart="234.14" departLane="best" from="-13460287#7" to="-405337819"/>
    <trip id="veh66" type="veh_passenger" depart="237.74" departLane="best" departSpeed="max" from="13303649#0" to="-13399273#4"/>
    <trip id="veh67" type="veh_passenger" depart="241.34" departLane="best" from="13363719#1" to="182050923"/>
    <trip id="veh68" type="veh_passenger" depart="244.95" departLane="best" departSpeed="max" from="-13425126" to="-182041036#0"/>
    <trip id="veh69" type="veh_passenger" depart="248.55" departLane="best" from="-899699583#3" to="13457289#1"/>
    <trip id="veh70" type="veh_passenger" depart="252.15" departLane="best" from="-13315403#3" to="13363719#0"/>
    <trip id="veh71" type="veh_passenger" depart="255.75" departLane="best" from="-13369411#0" to="-13400963#1"/>
    <trip id="veh72" type="veh_passenger" depart="259.36" departLane="best" from="692908076#4" to="13399273#6"/>
    <trip id="veh73" type="veh_passenger" depart="262.96" departLane="best" departSpeed="max" from="-13452845" to="-13400963#0"/>
    <trip id="veh74" type="veh_passenger" depart="266.56" departLane="best" departSpeed="max" from="-13341074#1" to="13450207"/>
    <trip id="veh75" type="veh_passenger" depart="270.16" departLane="best" departSpeed="max" from="-13452845" to="405337859#0"/>
    <trip id="veh76" type="veh_passenger" depart="273.76" departLane="best" from="405337827" to="-13331046#1"/>
    <trip id="veh77" type="veh_passenger" depart="277.37" departLane="best" from="-13441329" to="-13360321#5"/>
    <trip id="veh78" type="veh_passenger" depart="280.97" departLane="best" from="405337866#2" to="13397473"/>
    <trip id="veh80" type="veh_passenger" depart="288.17" departLane="best" from="405336656#0" to="-13395368"/>
    <trip id="veh81" type="veh_passenger" depart="291.78" departLane="best" from="-13358248#1" to="13315403#0"/>
    <trip id="veh82" type="veh_passenger" depart="295.38" departLane="best" departSpeed="max" from="13303649#0" to="13331053#0"/>
    <trip id="veh83" type="veh_passenger" depart="298.98" departLane="best" from="692908076#6" to="-13346422#0"/>
    <trip id="veh84" type="veh_passenger" depart="302.58" departLane="best" from="405337828#0" to="-13428024#4"/>
    <trip id="veh85" type="veh_passenger" depart="306.18" departLane="best" from="-13407256" to="-13318269#2"/>
    <trip id="veh86" type="veh_passenger" depart="309.79" departLane="best" from="13303647#1" to="-13460287#14"/>
    <trip id="veh87" type="veh_passenger" depart="313.39" departLane="best" departSpeed="max" from="-13457289#1" to="405337862#3"/>
    <trip id="veh88" type="veh_passenger" depart="316.99" departLane="best" from="-13315403#8" to="405337862#0"/>
    <trip id="veh89" type="veh_passenger" depart="320.59" departLane="best" from="13380823#2" to="-13315635#0"/>
    <trip id="veh90" type="veh_passenger" depart="324.19" departLane="best" from="-899699583#7" to="405336665#2"/>
    <trip id="veh91" type="veh_passenger" depart="327.80" departLane="best" from="524847622#2" to="405337866#0"/>
    <trip id="veh92" type="veh_passenger" depart="331.40" departLane="best" from="405337821" to="-13392362#0"/>
    <trip id="veh93" type="veh_passenger" depart="335.00" departLane="best" from="13341080#2" to="13399273#6"/>
    <trip id="veh94" type="veh_passenger" depart="338.60" departLane="best" from="13279071#3" to="-13318269#6"/>
    <trip id="veh95" type="veh_passenger" depart="342.21" departLane="best" from="1072677711#1" to="692908076#7"/>
    <trip id="veh96" type="veh_passenger" depart="345.81" departLane="best" from="-13460287#7" to="25003109#0"/>
    <trip id="veh97" type="veh_passenger" depart="349.41" departLane="best" from="13318269#3" to="13302658"/>
    <trip id="veh98" type="veh_passenger" depart="353.01" departLane="best" from="524847621#0" to="899699583#3"/>
    <trip id="veh100" type="veh_passenger" depart="360.22" departLane="best" departSpeed="max" from="-13395371" to="1355191048#13"/>
    <trip id="veh101" type="veh_passenger" depart="363.82" departLane="best" from="524847622#2" to="-13399273#10"/>
    <trip id="veh102" type="veh_passenger" depart="367.42" departLane="best" from="13369411#2" to="25003109#1"/>
    <trip id="veh103" type="veh_passenger" depart="371.02" departLane="best" from="-13325289" to="-13399273#2"/>
    <trip id="veh104" type="veh_passenger" depart="374.62" departLane="best" from="-13346422#2" to="182043874#0"/>
    <trip id="veh105" type="veh_passenger" depart="378.23" departLane="best" departSpeed="max" from="-13395371" to="524847621#1"/>
    <trip id="veh106" type="veh_passenger" depart="381.83" departLane="best" from="13346416#1" to="-13395352#1"/>
    <trip id="veh107" type="veh_passenger" depart="385.43" departLane="best" departSpeed="max" from="13398116" to="1355191048#0"/>
    <trip id="veh108" type="veh_passenger" depart="389.03" departLane="best" from="-13452953#1" to="-13358851"/>
    <trip id="veh109" type="veh_passenger" depart="392.64" departLane="best" from="405337855" to="-13428024#2"/>
    <trip id="veh110" type="veh_passenger" depart="396.24" departLane="best" departSpeed="max" from="13398116" to="13442107"/>
    <trip id="veh111" type="veh_passenger" depart="399.84" departLane="best" departSpeed="max" from="13303647#0" to="-13399273#2"/>
    <trip id="veh112" type="veh_passenger" depart="403.44" departLane="best" from="13360320#1" to="405337865#2"/>
    <trip id="veh113" type="veh_passenger" depart="407.04" departLane="best" from="-13428024#0" to="182043871#1"/>
    <trip id="veh114" type="veh_passenger" depart="410.65" departLane="best" from="-13452953#4" to="1072677711#4"/>
    <trip id="veh115" type="veh_passenger" depart="414.25" departLane="best" from="-13460287#13" to="-1355191048#16"/>
    <trip id="veh116" type="veh_passenger" depart="417.85" departLane="best" departSpeed="max" from="-182050924#8" to="405336638#7"/>
    <trip id="veh117" type="veh_passenger" depart="421.45" departLane="best" from="-13341077#0" to="13324019"/>
    <trip id="veh118" type="veh_passenger" depart="425.06" departLane="best" from="-13341077#0" to="13399273#5"/>
    <trip id="veh119" type="veh_passenger" depart="428.66" departLane="best" from="-13460287#7" to="405337865#1"/>
    <trip id="veh120" type="veh_passenger" depart="432.26" departLane="best" from="405337847" to="405337838#2"/>
    <trip id="veh121" type="veh_passenger" depart="435.86" departLane="best" departSpeed="max" from="1036524940" to="13380823#4"/>
    <trip id="veh122" type="veh_passenger" depart="439.46" departLane="best" from="405336665#3" to="182043865#3"/>
    <trip id="veh123" type="veh_passenger" depart="443.07" departLane="best" from="13399273#9" to="-13461550"/>
    <trip id="veh125" type="veh_passenger" depart="450.27" departLane="best" from="13380823#8" to="13358248#0"/>
    <trip id="veh126" type="veh_passenger" depart="453.87" departLane="best" from="-13360321#0" to="13394199#2"/>
    <trip id="veh127" type="veh_passenger" depart="457.47" departLane="best" from="1355191048#0" to="13425126"/>
    <trip id="veh128" type="veh_passenger" depart="461.08" departLane="best" from="182043874#2" to="-13399273#0"/>
    <trip id="veh129" type="veh_passenger" depart="464.68" departLane="best" departSpeed="max" from="13425127" to="13452953#4"/>
    <trip id="veh130" type="veh_passenger" depart="468.28" departLane="best" departSpeed="max" from="13346416#0" to="405337859#0"/>
    <trip id="veh131" type="veh_passenger" depart="471.88" departLane="best" from="405337821" to="-13346416#0"/>
    <trip id="veh132" type="veh_passenger" depart="475.49" departLane="best" departSpeed="max" from="13303649#0" to="-13460287#12"/>
    <trip id="veh133" type="veh_passenger" depart="479.09" departLane="best" from="13279071#0" to="405336638#3"/>
    <trip id="veh134" type="veh_passenger" depart="482.69" departLane="best" departSpeed="max" from="13425127" to="13452953#2"/>
    <trip id="veh135" type="veh_passenger" depart="486.29" departLane="best" from="25003109#6" to="13394199#1"/>
    <trip id="veh136" type="veh_passenger" depart="489.89" departLane="best" departSpeed="max" from="13303649#0" to="13279075#1"/>
    <trip id="veh137" type="veh_passenger" depart="493.50" departLane="best" from="-13341080#0" to="405337842"/>
    <trip id="veh138" type="veh_passenger" depart="497.10" departLane="best" from="405337859#1" to="13380841#3"/>
    <trip id="veh139" type="veh_passenger" depart="500.70" departLane="best" from="405336665#4" to="13399273#13"/>
    <trip id="veh140" type="veh_passenger" depart="504.30" departLane="best" from="-13394199#1" to="-13360321#0"/>
    <trip id="veh141" type="veh_passenger" depart="507.90" departLane="best" from="-182050924#3" to="405337858#0"/>
    <trip id="veh142" type="veh_passenger" depart="511.51" departLane="best" from="405336653#1" to="405337826"/>
    <trip id="veh143" type="veh_passenger" depart="515.11" departLane="best" from="405337859#0" to="-13399273#2"/>
    <trip id="veh144" type="veh_passenger" depart="518.71" departLane="best" departSpeed="max" from="-13457289#1" to="-13346422#0"/>
    <trip id="veh145" type="veh_passenger" depart="522.31" departLane="best" from="405336650" to="405337847"/>
    <trip id="veh146" type="veh_passenger" depart="525.92" departLane="best" from="13297781" to="-13449582#0"/>
    <trip id="veh147" type="veh_passenger" depart="529.52" departLane="best" departSpeed="max" from="-13395371" to="405337865#0"/>
    <trip id="veh148" type="veh_passenger" depart="533.12" departLane="best" from="-405337831#0" to="-692908076#1"/>
    <trip id="veh149" type="veh_passenger" depart="536.72" departLane="best" from="405336658#1" to="405337860"/>
    <trip id="veh150" type="veh_passenger" depart="540.32" departLane="best" from="-13307588#1" to="182050924#5"/>
    <trip id="veh152" type="veh_passenger" depart="547.53" departLane="best" from="405336658#1" to="-13452953#7"/>
    <trip id="veh154" type="veh_passenger" depart="554.73" departLane="best" from="405337838#1" to="405337823"/>
    <trip id="veh156" type="veh_passenger" depart="561.94" departLane="best" departSpeed="max" from="13319817#0" to="-1355191048#3"/>
    <trip id="veh157" type="veh_passenger" depart="565.54" departLane="best" from="405336653#1" to="-13403448"/>
    <trip id="veh158" type="veh_passenger" depart="569.14" departLane="best" from="-13307588#0" to="-13395368"/>
    <trip id="veh159" type="veh_passenger" depart="572.74" departLane="best" from="-405337861#1" to="405337828#0"/>
    <trip id="veh160" type="veh_passenger" depart="576.35" departLane="best" from="524847622#1" to="-13460287#15"/>
    <trip id="veh161" type="veh_passenger" depart="579.95" departLane="best" from="13428024#3" to="1072677711#6"/>
    <trip id="veh162" type="veh_passenger" depart="583.55" departLane="best" from="692908076#3" to="13380823#3"/>
    <trip id="veh163" type="veh_passenger" depart="587.15" departLane="best" from="405337866#4" to="-13358246#2"/>
    <trip id="veh164" type="veh_passenger" depart="590.75" departLane="best" from="405337823" to="-13395348"/>
    <trip id="veh165" type="veh_passenger" depart="594.36" departLane="best" from="524847621#2" to="-13452953#5"/>
    <trip id="veh166" type="veh_passenger" depart="597.96" departLane="best" from="-13360321#2" to="13315403#12"/>
    <trip id="veh167" type="veh_passenger" depart="601.56" departLane="best" from="-182050924#7" to="-182041036#2"/>
    <trip id="veh168" type="veh_passenger" depart="605.16" departLane="best" from="13399273#4" to="13360321#1"/>
    <trip id="veh169" type="veh_passenger" depart="608.77" departLane="best" from="1072677711#4" to="13398117"/>
    <trip id="veh170" type="veh_passenger" depart="612.37" departLane="best" from="13460287#11" to="182043865#3"/>
    <trip id="veh171" type="veh_passenger" depart="615.97" departLane="best" from="1151395798#1" to="405337863#1"/>
    <trip id="veh173" type="veh_passenger" depart="623.17" departLane="best" from="25003109#7" to="13460287#8"/>
    <trip id="veh174" type="veh_passenger" depart="626.78" departLane="best" departSpeed="max" from="1036524940" to="-13326146#1"/>
    <trip id="veh175" type="veh_passenger" depart="630.38" departLane="best" from="13457289#0" to="405337831#1"/>
    <trip id="veh177" type="veh_passenger" depart="637.58" departLane="best" from="182050923" to="-1355191048#17"/>
    <trip id="veh178" type="veh_passenger" depart="641.18" departLane="best" from="-182050924#4" to="-13279071#0"/>
    <trip id="veh179" type="veh_passenger" depart="644.79" departLane="best" from="13279071#4" to="-1355191048#12"/>
    <trip id="veh180" type="veh_passenger" depart="648.39" departLane="best" from="13380823#1" to="13293201"/>
    <trip id="veh181" type="veh_passenger" depart="651.99" departLane="best" from="405337866#4" to="1355191048#11"/>
    <trip id="veh182" type="veh_passenger" depart="655.59" departLane="best" from="405337859#1" to="13428028#2"/>
    <trip id="veh183" type="veh_passenger" depart="659.20" departLane="best" departSpeed="max" from="-182043873" to="13380841#3"/>
    <trip id="veh184" type="veh_passenger" depart="662.80" departLane="best" from="1151395798#0" to="-13460287#8"/>
    <trip id="veh185" type="veh_passenger" depart="666.40" departLane="best" from="13307588#1" to="13399273#10"/>
    <trip id="veh186" type="veh_passenger" depart="670.00" departLane="best" from="13452953#0" to="13331046#2"/>
    <trip id="veh187" type="veh_passenger" depart="673.60" departLane="best" from="13315403#7" to="-13399273#6"/>
    <trip id="veh188" type="veh_passenger" depart="677.21" departLane="best" departSpeed="max" from="13331049" to="524847621#0"/>
    <trip id="veh189" type="veh_passenger" depart="680.81" departLane="best" from="405336653#1" to="-13392362#1"/>
    <trip id="veh190" type="veh_passenger" depart="684.41" departLane="best" from="-13346422#3" to="13360321#5"/>
    <trip id="veh191" type="veh_passenger" depart="688.01" departLane="best" from="13424704" to="405337822"/>
    <trip id="veh193" type="veh_passenger" depart="695.22" departLane="best" from="-13460287#14" to="-13400963#1"/>
    <trip id="veh194" type="veh_passenger" depart="698.82" departLane="best" departSpeed="max" from="-13425126" to="-13303647#0"/>
    <trip id="veh195" type="veh_passenger" depart="702.42" departLane="best" from="-405337837#1" to="-13331049"/>
    <trip id="veh196" type="veh_passenger" depart="706.02" departLane="best" from="13302901" to="13450207"/>
    <trip id="veh197" type="veh_passenger" depart="709.63" departLane="best" from="13407257#3" to="13421841"/>
    <trip id="veh198" type="veh_passenger" depart="713.23" departLane="best" from="13346416#1" to="-13425127"/>
    <trip id="veh199" type="veh_passenger" depart="716.83" departLane="best" from="13452953#2" to="-13279071#2"/>
    <trip id="veh200" type="veh_passenger" depart="720.43" departLane="best" departSpeed="max" from="405329954#0" to="405336638#2"/>
    <trip id="veh201" type="veh_passenger" depart="724.03" departLane="best" from="-13360321#0" to="13303527#0"/>
    <trip id="veh202" type="veh_passenger" depart="727.64" departLane="best" from="13399273#11" to="524847621#0"/>
    <trip id="veh203" type="veh_passenger" depart="731.24" departLane="best" departSpeed="max" from="13358851" to="-13315635#0"/>
    <trip id="veh205" type="veh_passenger" depart="738.44" departLane="best" from="13318269#4" to="405336638#1"/>
    <trip id="veh206" type="veh_passenger" depart="742.05" departLane="best" from="13460287#1" to="-693134371#1"/>
    <trip id="veh207" type="veh_passenger" depart="745.65" departLane="best" departSpeed="max" from="13398116" to="47529158"/>
    <trip id="veh208" type="veh_passenger" depart="749.25" departLane="best" from="405337855" to="13428024#4"/>
    <trip id="veh209" type="veh_passenger" depart="752.85" departLane="best" from="405337851" to="13358248#2"/>
    <trip id="veh210" type="veh_passenger" depart="756.45" departLane="best" from="405336665#2" to="13380841#3"/>
    <trip id="veh211" type="veh_passenger" depart="760.06" departLane="best" from="405337858#1" to="182050924#8"/>
    <trip id="veh212" type="veh_passenger" depart="763.66" departLane="best" departSpeed="max" from="13331049" to="-13450213"/>
    <trip id="veh213" type="veh_passenger" depart="767.26" departLane="best" departSpeed="max" from="-13457289#1" to="13452845"/>
    <trip id="veh214" type="veh_passenger" depart="770.86" departLane="best" from="405336638#3" to="13365608"/>
    <trip id="veh215" type="veh_passenger" depart="774.46" departLane="best" from="-13407257#0" to="-13460287#10"/>
    <trip id="veh216" type="veh_passenger" depart="778.07" departLane="best" from="13341080#2" to="-13460287#7"/>
    <trip id="veh217" type="veh_passenger" depart="781.67" departLane="best" from="-1355191048#0" to="-182050924#4"/>
    <trip id="veh218" type="veh_passenger" depart="785.27" departLane="best" from="-13369411#0" to="-13363203"/>
    <trip id="veh219" type="veh_passenger" depart="788.87" departLane="best" departSpeed="max" from="-13452845" to="-1355191048#8"/>
    <trip id="veh220" type="veh_passenger" depart="792.48" departLane="best" from="182041036#0" to="-13319817#0"/>
    <trip id="veh221" type="veh_passenger" depart="796.08" departLane="best" departSpeed="max" from="13299221#0" to="13380841#2"/>
    <trip id="veh222" type="veh_passenger" depart="799.68" departLane="best" from="13303527#1" to="-13399273#11"/>
    <trip id="veh223" type="veh_passenger" depart="803.28" departLane="best" departSpeed="max" from="13303647#0" to="405337859#0"/>
    <trip id="veh224" type="veh_passenger" depart="806.88" departLane="best" departSpeed="max" from="13395368" to="1355191048#9"/>
    <trip id="veh225" type="veh_passenger" depart="810.49" departLane="best" from="405337826" to="405329950#0"/>
    <trip id="veh226" type="veh_passenger" depart="814.09" departLane="best" from="1072677711#2" to="-13279071#2"/>
    <trip id="veh227" type="veh_passenger" depart="817.69" departLane="best" from="-899699583#4" to="25003109#4"/>
    <trip id="veh228" type="veh_passenger" depart="821.29" departLane="best" departSpeed="max" from="13303647#0" to="25003109#1"/>
    <trip id="veh229" type="veh_passenger" depart="824.90" departLane="best" from="13380823#0" to="13425126"/>
    <trip id="veh230" type="veh_passenger" depart="828.50" departLane="best" departSpeed="max" from="-13449582#1" to="-13400963#0"/>
    <trip id="veh231" type="veh_passenger" depart="832.10" departLane="best" from="-13315403#13" to="-13303649#0"/>
    <trip id="veh232" type="veh_passenger" depart="835.70" departLane="best" from="692908076#3" to="1355191048#12"/>
    <trip id="veh233" type="veh_passenger" depart="839.30" departLane="best" from="13279075#1" to="-13392362#0"/>
    <trip id="veh234" type="veh_passenger" depart="842.91" departLane="best" from="13326146#0" to="13360321#0"/>
    <trip id="veh235" type="veh_passenger" depart="846.51" departLane="best" departSpeed="max" from="13403448" to="-13303647#0"/>
    <trip id="veh236" type="veh_passenger" depart="850.11" departLane="best" from="1072677712#2" to="13396799#1"/>
    <trip id="veh237" type="veh_passenger" depart="853.71" departLane="best" from="-13315403#1" to="13452953#4"/>
    <trip id="veh238" type="veh_passenger" depart="857.31" departLane="best" from="13380823#9" to="-13326146#0"/>
    <trip id="veh239" type="veh_passenger" depart="860.92" departLane="best" from="13319817#2" to="1051037174"/>
    <trip id="veh240" type="veh_passenger" depart="864.52" departLane="best" from="-13428134" to="-405329954#1"/>
    <trip id="veh241" type="veh_passenger" depart="868.12" departLane="best" from="13460287#0" to="-13341074#0"/>
    <trip id="veh242" type="veh_passenger" depart="871.72" departLane="best" from="-13302658" to="-13380823#9"/>
    <trip id="veh243" type="veh_passenger" depart="875.33" departLane="best" from="-899699583#7" to="-692908076#6"/>
    <trip id="veh244" type="veh_passenger" depart="878.93" departLane="best" from="13442107" to="405336665#0"/>
    <trip id="veh245" type="veh_passenger" depart="882.53" departLane="best" from="13449584" to="25003109#4"/>
    <trip id="veh246" type="veh_passenger" depart="886.13" departLane="best" from="-13302901" to="-13380823#1"/>