<?xml version="1.0" encoding="UTF-8"?>

<!-- generated on 2025-06-25 12:10:48.079504 by osmWebWizard.py UNKNOWN
<configuration>
    <net-file value="/Users/nedasarbalavandeymir/Sumo/2025-06-25-12-09-58/osm.net.xml.gz"/>
    <output-trip-file value="/Users/nedasarbalavandeymir/Sumo/2025-06-25-12-09-58/osm.truck.trips.xml"/>
    <route-file value="/Users/nedasarbalavandeymir/Sumo/2025-06-25-12-09-58/osm.truck.rou.xml"/>
    <prefix value="truck"/>
    <trip-attributes value="departLane=&quot;best&quot;"/>
    <fringe-start-attributes value="departSpeed=&quot;max&quot;"/>
    <vehicle-class value="truck"/>
    <fringe-factor value="5"/>
    <vclass value="truck"/>
    <via-edge-types value="highway.motorway,highway.motorway_link,highway.trunk_link,highway.primary_link,highway.secondary_link,highway.tertiary_link"/>
    <min-distance value="600.0"/>
    <min-distance.fringe value="10.0"/>
    <remove-loops value="True"/>
    <validate value="True"/>
    <insertion-density value="8.0"/>
</configuration>
-->

<!-- generated on 2025-06-25 12:10:48 by Eclipse SUMO duarouter Version 1.22.0
<duarouterConfiguration xmlns:xsi="http://www.w3.org/2001/XMLSchema-instance" xsi:noNamespaceSchemaLocation="http://sumo.dlr.de/xsd/duarouterConfiguration.xsd">

    <input>
        <net-file value="/Users/nedasarbalavandeymir/Sumo/2025-06-25-12-09-58/osm.net.xml.gz"/>
        <route-files value="/Users/nedasarbalavandeymir/Sumo/2025-06-25-12-09-58/osm.truck.trips.xml"/>
    </input>

    <output>
        <output-file value="/Users/nedasarbalavandeymir/Sumo/2025-06-25-12-09-58/osm.truck.trips.xml.tmp"/>
        <alternatives-output value="NUL"/>
        <write-trips value="true"/>
    </output>

    <processing>
        <remove-loops value="true"/>
    </processing>

    <time>
        <begin value="0.0"/>
        <end value="3600.0"/>
    </time>

    <report>
        <no-warnings value="true"/>
        <ignore-errors value="true"/>
        <no-step-log value="true"/>
    </report>

</duarouterConfiguration>
-->

<routes xmlns:xsi="http://www.w3.org/2001/XMLSchema-instance" xsi:noNamespaceSchemaLocation="http://sumo.dlr.de/xsd/routes_file.xsd">
    <vType id="truck_truck" vClass="truck"/>
    <trip id="truck0" type="truck_truck" depart="0.00" departLane="best" departSpeed="max" from="13392362#0" to="-13303527#0"/>
    <trip id="truck1" type="truck_truck" depart="5.40" departLane="best" departSpeed="max" from="-13452845" to="-13395352#1"/>
    <trip id="truck2" type="truck_truck" depart="10.81" departLane="best" from="405336665#5" to="13331046#2"/>
    <trip id="truck3" type="truck_truck" depart="16.21" departLane="best" from="405337828#1" to="-13303647#0"/>
    <trip id="truck4" type="truck_truck" depart="21.61" departLane="best" from="13399273#5" to="13318269#1"/>
    <trip id="truck5" type="truck_truck" depart="27.02" departLane="best" from="-13303527#1" to="-13392362#0"/>
    <trip id="truck6" type="truck_truck" depart="32.42" departLane="best" from="-13394199#2" to="13343882#0"/>
    <trip id="truck7" type="truck_truck" depart="37.82" departLane="best" from="13399273#6" to="-13363719#1"/>
    <trip id="truck8" type="truck_truck" depart="43.23" departLane="best" from="1355191048#5" to="-13279071#2"/>
    <trip id="truck9" type="truck_truck" depart="48.63" departLane="best" from="-1355191046" to="13428024#0"/>
    <trip id="truck10" type="truck_truck" depart="54.03" departLane="best" from="1355191048#2" to="13360321#2"/>
    <trip id="truck11" type="truck_truck" depart="59.44" departLane="best" from="524847620#0" to="-13460287#16"/>
    <trip id="truck12" type="truck_truck" depart="64.84" departLane="best" from="13341080#2" to="-13331053#1"/>
    <trip id="truck13" type="truck_truck" depart="70.24" departLane="best" from="1355191048#3" to="13452845"/>
    <trip id="truck14" type="truck_truck" depart="75.65" departLane="best" departSpeed="max" from="13331049" to="-692908076#11"/>
    <trip id="truck15" type="truck_truck" depart="81.05" departLane="best" departSpeed="max" from="-182050924#8" to="-13346422#1"/>
    <trip id="truck16" type="truck_truck" depart="86.45" departLane="best" from="405336638#8" to="-13360320#2"/>
    <trip id="truck17" type="truck_truck" depart="91.86" departLane="best" departSpeed="max" from="13400963#0" to="-13315403#10"/>
    <trip id="truck18" type="truck_truck" depart="97.26" departLane="best" from="-13341074#0" to="-13395368"/>
    <trip id="truck19" type="truck_truck" depart="102.66" departLane="best" from="-13346422#2" to="-13407256"/>
    <trip id="truck20" type="truck_truck" depart="108.06" departLane="best" from="13380841#1" to="-1355191048#2"/>
    <trip id="truck21" type="truck_truck" depart="113.47" departLane="best" from="-182050924#3" to="13394199#2"/>
    <trip id="truck22" type="truck_truck" depart="118.87" departLane="best" from="-13449584" to="405337862#2"/>
    <trip id="truck23" type="truck_truck" depart="124.27" departLane="best" from="-13394199#1" to="13380823#2"/>
    <trip id="truck24" type="truck_truck" depart="129.68" departLane="best" departSpeed="max" from="-13380841#3" to="13452845"/>
    <trip id="truck25" type="truck_truck" depart="135.08" departLane="best" from="-13380841#0" to="-182050924#1"/>
    <trip id="truck26" type="truck_truck" depart="140.48" departLane="best" from="693134371#4" to="13395371"/>
    <trip id="truck27" type="truck_truck" depart="145.89" departLane="best" departSpeed="max" from="13346416#0" to="-13407257#1"/>
    <trip id="truck28" type="truck_truck" depart="151.29" departLane="best" from="25003109#6" to="13471584#0"/>
    <trip id="truck29" type="truck_truck" depart="156.69" departLane="best" from="-13407256" to="-13303647#0"/>
    <trip id="truck30" type="truck_truck" depart="162.10" departLane="best" from="13399273#10" to="405337865#0"/>
    <trip id="truck31" type="truck_truck" depart="167.50" departLane="best" from="405336658#1" to="-13452953#2"/>
    <trip id="truck32" type="truck_truck" depart="172.90" departLane="best" departSpeed="max" from="13395348" to="405337831#1"/>
    <trip id="truck33" type="truck_truck" depart="178.31" departLane="best" from="405337850" to="-13279071#1"/>
    <trip id="truck34" type="truck_truck" depart="183.71" departLane="best" departSpeed="max" from="-13449582#1" to="-13399273#10"/>
    <trip id="truck35" type="truck_truck" depart="189.11" departLane="best" from="13346416#2" to="-13400963#0"/>
    <trip id="truck36" type="truck_truck" depart="194.52" departLane="best" from="13358248#0" to="405336665#4"/>
    <trip id="truck37" type="truck_truck" depart="199.92" departLane="best" from="-899699583#5" to="-13318269#6"/>
    <trip id="truck38" type="truck_truck" depart="205.32" departLane="best" from="13341080#1" to="-13315403#11"/>
    <trip id="truck39" type="truck_truck" depart="210.73" departLane="best" from="13353393#3" to="13392362#2"/>
    <trip id="truck40" type="truck_truck" depart="216.13" departLane="best" from="1355191048#1" to="-693134371#5"/>
    <trip id="truck41" type="truck_truck" depart="221.53" departLane="best" departSpeed="max" from="-13324019" to="-182050924#3"/>
    <trip id="truck42" type="truck_truck" depart="226.94" departLane="best" from="-899699583#4" to="13331053#1"/>
    <trip id="truck43" type="truck_truck" depart="232.34" departLane="best" from="692908076#1" to="405329950#0"/>
    <trip id="truck44" type="truck_truck" depart="237.74" departLane="best" from="-13279075#1" to="13450207"/>
    <trip id="truck45" type="truck_truck" depart="243.15" departLane="best" departSpeed="max" from="13398116" to="13341074#1"/>
    <trip id="truck46" type="truck_truck" depart="248.55" departLane="best" from="-13449584" to="13395371"/>
    <trip id="truck49" type="truck_truck" depart="264.76" departLane="best" from="405336658#0" to="-13400963#0"/>
    <trip id="truck50" type="truck_truck" depart="270.16" departLane="best" from="-13315403#9" to="13380823#0"/>
    <trip id="truck51" type="truck_truck" depart="275.57" departLane="best" from="405337866#2" to="405336645#0"/>
    <trip id="truck52" type="truck_truck" depart="280.97" departLane="best" departSpeed="max" from="-13457289#1" to="13395371"/>
    <trip id="truck53" type="truck_truck" depart="286.37" departLane="best" departSpeed="max" from="13363203" to="-13360321#0"/>
    <trip id="truck54" type="truck_truck" depart="291.78" departLane="best" from="13452953#8" to="13341077#0"/>
    <trip id="truck55" type="truck_truck" depart="297.18" departLane="best" from="13460287#18" to="-13319817#1"/>
    <trip id="truck56" type="truck_truck" depart="302.58" departLane="best" departSpeed="max" from="-13293201" to="405337859#0"/>
    <trip id="truck57" type="truck_truck" depart="307.98" departLane="best" from="405336658#3" to="182050923"/>
    <trip id="truck58" type="truck_truck" depart="313.39" departLane="best" from="13460287#12" to="-13315403#8"/>
    <trip id="truck59" type="truck_truck" depart="318.79" departLane="best" departSpeed="max" from="-13341074#1" to="13315403#10"/>
    <trip id="truck60" type="truck_truck" depart="324.19" departLane="best" from="-13457796" to="-13346422#4"/>
    <trip id="truck61" type="truck_truck" depart="329.60" departLane="best" departSpeed="max" from="-13449582#1" to="405336652#0"/>
    <trip id="truck62" type="truck_truck" depart="335.00" departLane="best" departSpeed="max" from="1036524940" to="-13395348"/>
    <trip id="truck63" type="truck_truck" depart="340.40" departLane="best" from="13331051" to="13452845"/>
    <trip id="truck64" type="truck_truck" depart="345.81" departLane="best" departSpeed="max" from="-13397473" to="-13452953#0"/>
    <trip id="truck65" type="truck_truck" depart="351.21" departLane="best" from="-899699583#4" to="13397473"/>
    <trip id="truck66" type="truck_truck" depart="356.61" departLane="best" departSpeed="max" from="-13358248#2" to="-13395352#3"/>
    <trip id="truck67" type="truck_truck" depart="362.02" departLane="best" from="-1355191048#18" to="-13363719#0"/>
    <trip id="truck68" type="truck_truck" depart="367.42" departLane="best" from="13407257#0" to="-13395352#0"/>
    <trip id="truck69" type="truck_truck" depart="372.82" departLane="best" from="-13326146#0" to="13394199#2"/>
    <trip id="truck70" type="truck_truck" depart="378.23" departLane="best" from="-13407256" to="405337823"/>
    <trip id="truck71" type="truck_truck" depart="383.63" departLane="best" from="25003109#4" to="-13318269#6"/>
    <trip id="truck72" type="truck_truck" depart="389.03" departLane="best" from="-13424704" to="-13399273#3"/>
    <trip id="truck73" type="truck_truck" depart="394.44" departLane="best" from="405337863#2" to="13358248#2"/>
    <trip id="truck74" type="truck_truck" depart="399.84" departLane="best" departSpeed="max" from="13303647#0" to="1355191048#14"/>
    <trip id="truck75" type="truck_truck" depart="405.24" departLane="best" from="1355191048#4" to="-13380823#6"/>
    <trip id="truck76" type="truck_truck" depart="410.65" departLane="best" from="-13346416#1" to="899699583#7"/>
    <trip id="truck77" type="truck_truck" depart="416.05" departLane="best" departSpeed="max" from="1036524940" to="13293201"/>
    <trip id="truck78" type="truck_truck" depart="421.45" departLane="best" from="693134371#0" to="-13341074#0"/>
    <trip id="truck79" type="truck_truck" depart="426.86" departLane="best" from="-692908076#8" to="-13460287#3"/>
    <trip id="truck80" type="truck_truck" depart="432.26" departLane="best" from="405336638#8" to="-13399273#11"/>
    <trip id="truck81" type="truck_truck" depart="437.66" departLane="best" from="-13396799#0" to="1072677711#5"/>
    <trip id="truck82" type="truck_truck" depart="443.07" departLane="best" from="1013754695" to="-13407257#0"/>
    <trip id="truck83" type="truck_truck" depart="448.47" departLane="best" from="-13428024#4" to="405337852#0"/>
    <trip id="truck84" type="truck_truck" depart="453.87" departLane="best" from="13341080#2" to="-13315403#14"/>
    <trip id="truck85" type="truck_truck" depart="459.28" departLane="best" from="-899699583#7" to="182050924#3"/>
    <trip id="truck86" type="truck_truck" depart="464.68" departLane="best" from="405329950#0" to="-13363203"/>
    <trip id="truck87" type="truck_truck" depart="470.08" departLane="best" from="13315403#1" to="-13395348"/>
    <trip id="truck88" type="truck_truck" depart="475.49" departLane="best" departSpeed="max" from="-182050924#8" to="-693134371#1"/>
    <trip id="truck89" type="truck_truck" depart="480.89" departLane="best" from="13297781" to="693134371#5"/>
    <trip id="truck90" type="truck_truck" depart="486.29" departLane="best" from="182043874#2" to="899699583#4"/>
    <trip id="truck91" type="truck_truck" depart="491.70" departLane="best" departSpeed="max" from="13346416#0" to="13449582#1"/>
    <trip id="truck92" type="truck_truck" depart="497.10" departLane="best" from="13380823#11" to="-13428024#2"/>
    <trip id="truck93" type="truck_truck" depart="502.50" departLane="best" from="524847623#1" to="-13360321#0"/>
    <trip id="truck94" type="truck_truck" depart="507.90" departLane="best" from="13331053#1" to="13457289#1"/>
    <trip id="truck95" type="truck_truck" depart="513.31" departLane="best" from="13315635#1" to="25003109#2"/>
    <trip id="truck96" type="truck_truck" depart="518.71" departLane="best" from="13380823#3" to="524847621#1"/>
    <trip id="truck97" type="truck_truck" depart="524.11" departLane="best" from="-13341074#0" to="-13380823#12"/>
    <trip id="truck98" type="truck_truck" depart="529.52" departLane="best" from="13360320#1" to="13399273#8"/>
    <trip id="truck99" type="truck_truck" depart="534.92" departLane="best" from="13411209" to="-13346422#0"/>
    <trip id="truck100" type="truck_truck" depart="540.32" departLane="best" from="405336665#3" to="-13399273#1"/>
    <trip id="truck101" type="truck_truck" depart="545.73" departLane="best" from="13360320#1" to="13380841#2"/>
    <trip id="truck102" type="truck_truck" depart="551.13" departLane="best" from="-899699583#7" to="13360321#3"/>
    <trip id="truck103" type="truck_truck" depart="556.53" departLane="best" from="13319817#1" to="405337862#0"/>
    <trip id="truck104" type="truck_truck" depart="561.94" departLane="best" departSpeed="max" from="-13398117" to="13449582#1"/>
    <trip id="truck105" type="truck_truck" depart="567.34" departLane="best" departSpeed="max" from="13395368" to="-13428028#0"/>
    <trip id="truck106" type="truck_truck" depart="572.74" departLane="best" from="13460287#4" to="13457289#1"/>
    <trip id="truck107" type="truck_truck" depart="578.15" departLane="best" from="-13331046#1" to="-13279071#1"/>
    <trip id="truck108" type="truck_truck" depart="583.55" departLane="best" departSpeed="max" from="-13449582#1" to="405337861#0"/>
    <trip id="truck109" type="truck_truck" depart="588.95" departLane="best" from="-182050924#3" to="-13360321#4"/>
    <trip id="truck110" type="truck_truck" depart="594.36" departLane="best" from="-182050924#6" to="13428028#0"/>
    <trip id="truck111" type="truck_truck" depart="599.76" departLane="best" departSpeed="max" from="13363203" to="-693134371#2"/>
    <trip id="truck112" type="truck_truck" depart="605.16" departLane="best" departSpeed="max" from="13395348" to="-13279071#3"/>
    <trip id="truck113" type="truck_truck" depart="610.57" departLane="best" from="182041036#1" to="-13428024#4"/>
    <trip id="truck114" type="truck_truck" depart="615.97" departLane="best" from="13353393#1" to="13346422#2"/>
    <trip id="truck115" type="truck_truck" depart="621.37" departLane="best" departSpeed="max" from="13403448" to="-13392362#0"/>
    <trip id="truck116" type="truck_truck" depart="626.78" departLane="best" from="13380823#9" to="-13400963#0"/>
    <trip id="truck117" type="truck_truck" depart="632.18" departLane="best" from="391998278#0" to="-13331049"/>
    <trip id="truck118" type="truck_truck" depart="637.58" departLane="best" departSpeed="max" from="1036524940" to="-13403448"/>
    <trip id="truck119" type="truck_truck" depart="642.99" departLane="best" from="-1151395798#2" to="13460287#7"/>
    <trip id="truck120" type="truck_truck" depart="648.39" departLane="best" from="-13380841#2" to="-13400959"/>
    <trip id="truck121" type="truck_truck" depart="653.79" departLane="best" from="13428028#1" to="-13346422#1"/>
    <trip id="truck122" type="truck_truck" depart="659.20" departLane="best" departSpeed="max" from="1036524940" to="-13279071#4"/>
    <trip id="truck124" type="truck_truck" depart="670.00" departLane="best" from="-182050924#7" to="-13360321#2"/>
    <trip id="truck125" type="truck_truck" depart="675.41" departLane="best" from="-13460287#13" to="405336665#5"/>
    <trip id="truck126" type="truck_truck" depart="680.81" departLane="best" from="-1355191048#13" to="-405329950#1"/>
    <trip id="truck127" type="truck_truck" depart="686.21" departLane="best" from="405337823" to="-13395348"/>
    <trip id="truck128" type="truck_truck" depart="691.62" departLane="best" from="-13428024#4" to="-13341080#0"/>
    <trip id="truck130" type="truck_truck" depart="702.42" departLane="best" from="693134371#2" to="13380841#3"/>
    <trip id="truck131" type="truck_truck" depart="707.82" departLane="best" from="13380823#10" to="405337859#0"/>
    <trip id="truck132" type="truck_truck" depart="713.23" departLane="best" from="405336645#0" to="-692908076#2"/>
    <trip id="truck134" type="truck_truck" depart="724.03" departLane="best" from="-13303527#0" to="13452953#2"/>
    <trip id="truck135" type="truck_truck" depart="729.44" departLane="best" from="-1355191048#13" to="405337859#1"/>
    <trip id="truck136" type="truck_truck" depart="734.84" departLane="best" from="1355191048#18" to="405336638#3"/>
    <trip id="truck137" type="truck_truck" depart="740.24" departLane="best" from="1355191048#6" to="-13400963#0"/>
    <trip id="truck138" type="truck_truck" depart="745.65" departLane="best" from="13461772" to="-13346416#0"/>
    <trip id="truck140" type="truck_truck" depart="756.45" departLane="best" from="13399273#8" to="182043871#1"/>
    <trip id="truck141" type="truck_truck" depart="761.86" departLane="best" departSpeed="max" from="13299221#0" to="-13437128"/>
    <trip id="truck142" type="truck_truck" depart="767.26" departLane="best" from="-1355191048#13" to="-13395368"/>
    <trip id="truck143" type="truck_truck" depart="772.66" departLane="best" from="-13302901" to="-13380823#9"/>
    <trip id="truck144" type="truck_truck" depart="778.07" departLane="best" from="524847623#0" to="-13407257#0"/>
    <trip id="truck145" type="truck_truck" depart="783.47" departLane="best" from="-692908076#6" to="13341074#1"/>
    <trip id="truck146" type="truck_truck" depart="788.87" departLane="best" from="405337865#2" to="-13399273#9"/>
    <trip id="truck147" type="truck_truck" depart="794.28" departLane="best" from="692908076#0" to="-13380823#0"/>
    <trip id="truck148" type="truck_truck" depart="799.68" departLane="best" from="524847621#2" to="-13400963#0"/>
    <trip id="truck150" type="truck_truck" depart="810.49" departLane="best" from="-405337831#0" to="13360320#1"/>
    <trip id="truck151" type="truck_truck" depart="815.89" departLane="best" from="-13428134" to="13437128"/>
    <trip id="truck152" type="truck_truck" depart="821.29" departLane="best" from="-1151395798#1" to="405337855"/>
    <trip id="truck153" type="truck_truck" depart="826.70" departLane="best" departSpeed="max" from="-182043873" to="-13318269#6"/>
    <trip id="truck154" type="truck_truck" depart="832.10" departLane="best" from="13395352#2" to="-13460287#11"/>
    <trip id="truck155" type="truck_truck" depart="837.50" departLane="best" from="13460287#18" to="25003109#0"/>
    <trip id="truck156" type="truck_truck" depart="842.91" departLane="best" from="-13407257#0" to="-13428028#0"/>
    <trip id="truck157" type="truck_truck" depart="848.31" departLane="best" from="-13460287#14" to="-692908076#2"/>
    <trip id="truck158" type="truck_truck" depart="853.71" departLane="best" from="13360320#3" to="-693134371#3"/>
    <trip id="truck159" type="truck_truck" depart="859.12" departLane="best" from="405337863#1" to="13400959"/>
    <trip id="truck160" type="truck_truck" depart="864.52" departLane="best" from="405337828#0" to="13380823#9"/>
    <trip id="truck161" type="truck_truck" depart="869.92" departLane="best" from="-13457796" to="13346416#1"/>
    <trip id="truck162" type="truck_truck" depart="875.33" departLane="best" from="1151395798#0" to="-13424704"/>
    <trip id="truck163" type="truck_truck" depart="880.73" departLane="best" from="1051035134#1" to="13360321#0"/>
    <trip id="truck164" type="truck_truck" depart="886.13" departLane="best" departSpeed="max" from="13395348" to="13279075#1"/>
    <trip id="truck166" type="truck_truck" depart="896.94" departLane="best" from="1355191048#13" to="13369411#0"/>
    <trip id="truck167" type="truck_truck" depart="902.34" departLane="best" departSpeed="max" from="-13341074#1" to="13324019"/>
    <trip id="truck168" type="truck_truck" depart="907.74" departLane="best" from="13380823#8" to="-13460287#15"/>
    <trip id="truck170" type="truck_truck" depart="918.55" departLane="best" departSpeed="max" from="13395368" to="-13395352#3"/>
    <trip id="truck171" type="truck_truck" depart="923.95" departLane="best" departSpeed="max" from="-13397473" to="-13302901"/>
    <trip id="truck172" type="truck_truck" depart="929.36" departLane="best" from="-13428024#0" to="13302658"/>
    <trip id="truck173" type="truck_truck" depart="934.76" departLane="best" departSpeed="max" from="405329954#0" to="-13319817#0"/>
    <trip id="truck174" type="truck_truck" depart="940.16" departLane="best" from="-899699583#3" to="13394199#1"/>
    <trip id="truck175" type="truck_truck" depart="945.57" departLane="best" from="13315403#4" to="-13398116"/>
    <trip id="truck176" type="truck_truck" depart="950.97" departLane="best" departSpeed="max" from="13395348" to="-13279071#1"/>
    <trip id="truck177" type="truck_truck" depart="956.37" departLane="best" from="13450213" to="13460287#6"/>
    <trip id="truck178" type="truck_truck" depart="961.78" departLane="best" from="13353393#0" to="899699583#1"/>
    <trip id="truck179" type="truck_truck" depart="967.18" departLane="best" from="-13394199#0" to="524847620#0"/>
    <trip id="truck180" type="truck_truck" depart="972.58" departLane="best" departSpeed="max" from="13319817#0" to="-13315403#13"/>
    <trip id="truck181" type="truck_truck" depart="977.99" departLane="best" from="-13428024#4" to="25003109#0"/>
    <trip id="truck182" type="truck_truck" depart="983.39" departLane="best" departSpeed="max" from="13395368" to="-693134371#3"/>
    <trip id="truck183" type="truck_truck" depart="988.79" departLane="best" from="13360320#2" to="405337866#3"/>
    <trip id="truck184" type="truck_truck" depart="994.20" departLane="best" from="13407257#0" to="13318269#1"/>
    <trip id="truck185" type="truck_truck" depart="999.60" departLane="best" from="182050924#3" to="-13346416#1"/>
    <trip id="truck186" type="truck_truck" depart="1005.00" departLane="best" from="405337822" to="13452953#8"/>
    <trip id="truck187" type="truck_truck" depart="1010.41" departLane="best" from="13303647#1" to="-13399273#8"/>
    <trip id="truck188" type="truck_truck" depart="1015.81" departLane="best" from="-13428024#2" to="13395371"/>
    <trip id="truck189" type="truck_truck" depart="1021.21" departLane="best" from="-13457796" to="-13279071#2"/>
    <trip id="truck190" type="truck_truck" depart="1026.62" departLane="best" from="13380823#11" to="-13403448"/>
    <trip id="truck191" type="truck_truck" depart="1032.02" departLane="best" from="13331053#1" to="13421841"/>
    <trip id="truck192" type="truck_truck" depart="1037.42" departLane="best" departSpeed="max" from="-13450207" to="13452953#6"/>
    <trip id="truck193" type="truck_truck" depart="1042.83" departLane="best" from="13331053#0" to="-13358246#2"/>
    <trip id="truck194" type="truck_truck" depart="1048.23" departLane="best" departSpeed="max" from="13400963#0" to="-13318269#0"/>
    <trip id="truck195" type="truck_truck" depart="1053.63" departLane="best" from="693134371#3" to="-13341080#1"/>
    <trip id="truck196" type="truck_truck" depart="1059.04" departLane="best" from="-899699583#4" to="13394199#0"/>
    <trip id="truck197" type="truck_truck" depart="1064.44" departLane="best" from="1012376671" to="405337823"/>
    <trip id="truck198" type="truck_truck" depart="1069.84" departLane="best" from="13358248#0" to="13425126"/>
    <trip id="truck199" type="truck_truck" depart="1075.25" departLane="best" from="405336638#2" to="13460287#16"/>
    <trip id="truck200" type="truck_truck" depart="1080.65" departLane="best" departSpeed="max" from="-182050924#8" to="-13279071#1"/>
    <trip id="truck201" type="truck_truck" depart="1086.05" departLane="best" from="182041036#1" to="13457796"/>
    <trip id="truck203" type="truck_truck" depart="1096.86" departLane="best" from="-899699583#7" to="13457289#1"/>
    <trip id="truck204" type="truck_truck" depart="1102.26" departLane="best" from="13399273#6" to="-13395352#0"/>
    <trip id="truck205" type="truck_truck" depart="1107.66" departLane="best" from="1355191048#16" to="13400963#1"/>
    <trip id="truck206" type="truck_truck" depart="1113.07" departLane="best" from="13461550" to="-13363203"/>
    <trip id="truck207" type="truck_truck" depart="1118.47" departLane="best" from="13303527#1" to="-13346422#4"/>
    <trip id="truck208" type="truck_truck" depart="1123.87" departLane="best" from="13380823#0" to="-13303527#1"/>
    <trip id="truck209" type="truck_truck" depart="1129.28" departLane="best" from="-692908076#12" to="13358246#1"/>
    <trip id="truck210" type="truck_truck" depart="1134.68" departLane="best" from="-13303647#1" to="13395371"/>
    <trip id="truck211" type="truck_truck" depart="1140.08" departLane="best" from="13360325" to="-13279071#4"/>
    <trip id="truck212" type="truck_truck" depart="1145.49" departLane="best" from="-13315635#1" to="-182050924#0"/>
    <trip id="truck213" type="truck_truck" depart="1150.89" departLane="best" from="-13399273#11" to="-13460287#0"/>
    <trip id="truck214" type="truck_truck" depart="1156.29" departLane="best" from="13452953#7" to="-182050924#0"/>
    <trip id="truck215" type="truck_truck" depart="1161.70" departLane="best" from="13450213" to="182050924#0"/>
    <trip id="truck216" type="truck_truck" depart="1167.10" departLane="best" from="13428028#1" to="-13325292"/>
    <trip id="truck217" type="truck_truck" depart="1172.50" departLane="best" departSpeed="max" from="-13293201" to="13341077#0"/>
    <trip id="truck218" type="truck_truck" depart="1177.91" departLane="best" from="-899699583#7" to="1355191048#20"/>
    <trip id="truck219" type="truck_truck" depart="1183.31" departLane="best" from="-13394199#2" to="1355191048#11"/>
    <trip id="truck220" type="truck_truck" depart="1188.71" departLane="best" departSpeed="max" from="46968328#0" to="-13392362#0"/>
    <trip id="truck221" type="truck_truck" depart="1194.12" departLane="best" from="-13297781" to="-13360321#0"/>
    <trip id="truck222" type="truck_truck" depart="1199.52" departLane="best" departSpeed="max" from="13346422#0" to="-13395352#0"/>
    <trip id="truck223" type="truck_truck" depart="1204.92" departLane="best" from="-13399273#8" to="-13460287#3"/>
    <trip id="truck224" type="truck_truck" depart="1210.33" departLane="best" departSpeed="max" from="-13380841#3" to="13380823#10"/>
    <trip id="truck225" type="truck_truck" depart="1215.73" departLane="best" from="13442107" to="-13346416#1"/>
    <trip id="truck227" type="truck_truck" depart="1226.54" departLane="best" from="-13353393#2" to="-13303527#0"/>
    <trip id="truck228" type="truck_truck" depart="1231.94" departLane="best" from="524847620#0" to="405337831#0"/>
    <trip id="truck229" type="truck_truck" depart="1237.34" departLane="best" from="13399273#12" to="13392362#2"/>
    <trip id="truck230" type="truck_truck" depart="1242.75" departLane="best" from="-13346422#3" to="13460287#8"/>
    <trip id="truck231" type="truck_truck" depart="1248.15" departLane="best" departSpeed="max" from="405329954#0" to="13369411#3"/>
    <trip id="truck232" type="truck_truck" depart="1253.55" departLane="best" departSpeed="max" from="-13358248#2" to="692908076#8"/>
    <trip id="truck233" type="truck_truck" depart="1258.96" departLane="best" from="1051035134#0" to="1355191048#7"/>
    <trip id="truck234" type="truck_truck" depart="1264.36" departLane="best" departSpeed="max" from="13318269#0" to="-13460287#6"/>
    <trip id="truck237" type="truck_truck" depart="1280.57" departLane="best" from="13428024#0" to="524847622#1"/>
    <trip id="truck238" type="truck_truck" depart="1285.97" departLane="best" departSpeed="max" from="-13450207" to="182043865#1"/>
    <trip id="truck239" type="truck_truck" depart="1291.38" departLane="best" departSpeed="max" from="13331049" to="13315403#0"/>
    <trip id="truck240" type="truck_truck" depart="1296.78" departLane="best" from="1072677711#4" to="13452845"/>
    <trip id="truck241" type="truck_truck" depart="1302.18" departLane="best" departSpeed="max" from="-13450207" to="25003109#2"/>
    <trip id="truck242" type="truck_truck" depart="1307.58" departLane="best" from="182050924#4" to="-13331046#2"/>
    <trip id="truck244" type="truck_truck" depart="1318.39" departLane="best" from="13302901" to="13380823#3"/>
    <trip id="truck245" type="truck_truck" depart="1323.79" departLane="best" departSpeed="max" from="-182050924#8" to="-13303647#0"/>
    <trip id="truck246" type="truck_truck" depart="1329.20" departLane="best" departSpeed="max" from="405329954#0" to="13380823#0"/>
    <trip id="truck247" type="truck_truck" depart="1334.60" departLane="best" from="-13399273#11" to="-1355191048#6"/>
    <trip id="truck249" type="truck_truck" depart="1345.41" departLane="best" from="13399273#9" to="-13403448"/>