<?xml version="1.0" encoding="UTF-8"?>

<!-- generated on 2025-06-25 12:10:42 by Eclipse SUMO netconvert Version 1.22.0
<netconvertConfiguration xmlns:xsi="http://www.w3.org/2001/XMLSchema-instance" xsi:noNamespaceSchemaLocation="http://sumo.dlr.de/xsd/netconvertConfiguration.xsd">

    <input>
        <type-files value="${SUMO_HOME}/data/typemap/osmNetconvert.typ.xml,${SUMO_HOME}/data/typemap/osmNetconvertAerialway.typ.xml"/>
        <osm-files value="osm_bbox.osm.xml.gz"/>
    </input>

    <output>
        <output-file value="osm.net.xml.gz"/>
        <output.street-names value="true"/>
        <output.original-names value="true"/>
        <ptstop-output value="osm_stops.add.xml"/>
        <ptline-output value="osm_ptlines.xml"/>
    </output>

    <projection>
        <proj value="+proj=merc +a=6378137 +b=6378137 +lat_ts=0.0 +lon_0=0.0 +x_0=0.0 +y_0=0 +k=1.0 +units=m +nadgrids=@null +wktext +no_defs"/>
    </projection>

    <processing>
        <geometry.remove value="true"/>
        <roundabouts.guess value="true"/>
    </processing>

    <tls_building>
        <tls.discard-simple value="true"/>
        <tls.join value="true"/>
        <tls.guess-signals value="true"/>
        <tls.default-type value="actuated"/>
    </tls_building>

    <ramp_guessing>
        <ramps.guess value="true"/>
    </ramp_guessing>

    <junctions>
        <junctions.join value="true"/>
        <junctions.corner-detail value="5"/>
    </junctions>

    <railway>
        <railway.topology.repair value="true"/>
    </railway>

</netconvertConfiguration>
-->

<net version="1.20" junctionCornerDetail="5" limitTurnSpeed="5.50" xmlns:xsi="http://www.w3.org/2001/XMLSchema-instance" xsi:noNamespaceSchemaLocation="http://sumo.dlr.de/xsd/net_file.xsd">

    <location netOffset="13139299.07,-4042853.09" convBoundary="0.00,0.00,2463.81,1969.48" origBoundary="-118.032332,34.104579,-118.010199,34.119227" projParameter="+proj=merc +a=6378137 +b=6378137 +lat_ts=0.0 +lon_0=0.0 +x_0=0.0 +y_0=0 +k=1.0 +units=m +nadgrids=@null +wktext +no_defs"/>

    <type id="highway.primary" priority="12" numLanes="2" speed="27.78" disallow="tram rail_urban rail rail_electric rail_fast ship container cable_car subway aircraft wheelchair scooter drone" oneway="0"/>
    <type id="highway.primary_link" priority="7" numLanes="1" speed="22.22" disallow="tram rail_urban rail rail_electric rail_fast ship container cable_car subway aircraft wheelchair scooter drone" oneway="0"/>
    <type id="highway.residential" priority="3" numLanes="1" speed="13.89" disallow="tram rail_urban rail rail_electric rail_fast ship container cable_car subway aircraft wheelchair scooter drone" oneway="0"/>
    <type id="highway.service" priority="1" numLanes="1" speed="5.56" allow="pedestrian delivery bicycle" oneway="0"/>
    <type id="highway.tertiary" priority="10" numLanes="1" speed="22.22" disallow="tram rail_urban rail rail_electric rail_fast ship container cable_car subway aircraft wheelchair scooter drone" oneway="0"/>

    <edge id=":10035761265_0" function="internal">
        <lane id=":10035761265_0_0" index="0" allow="pedestrian delivery bicycle" speed="3.65" length="4.67" shape="88.46,433.50 89.65,434.31 90.04,435.12 89.63,435.91 88.43,436.70"/>
    </edge>
    <edge id=":10035761272_0" function="internal">
        <lane id=":10035761272_0_0" index="0" allow="pedestrian delivery bicycle" speed="5.56" length="6.23" shape="136.28,402.38 136.23,408.61"/>
    </edge>
    <edge id=":10035761272_1" function="internal">
        <lane id=":10035761272_1_0" index="0" allow="pedestrian delivery bicycle" speed="3.65" length="4.67" shape="136.28,402.38 135.47,403.57 134.67,403.97 133.87,403.56 133.08,402.36"/>
    </edge>
    <edge id=":10035761272_2" function="internal">
        <lane id=":10035761272_2_0" index="0" allow="pedestrian delivery bicycle" speed="4.91" length="5.17" shape="129.75,405.21 131.20,405.21 132.24,404.74 132.86,403.78 133.08,402.36"/>
    </edge>
    <edge id=":10035761272_3" function="internal">
        <lane id=":10035761272_3_0" index="0" allow="pedestrian delivery bicycle" speed="5.56" length="7.80" shape="129.75,405.21 132.59,405.78 134.62,406.53 135.83,407.48 136.23,408.61"/>
    </edge>
    <edge id=":10035761272_4" function="internal">
        <lane id=":10035761272_4_0" index="0" allow="pedestrian delivery bicycle" speed="5.56" length="6.23" shape="133.03,408.59 133.08,402.36"/>
    </edge>
    <edge id=":10035761272_5" function="internal">
        <lane id=":10035761272_5_0" index="0" allow="pedestrian delivery bicycle" speed="3.65" length="4.67" shape="133.03,408.59 133.84,407.39 134.64,407.00 135.44,407.40 136.23,408.61"/>
    </edge>
    <edge id=":10696158509_0" function="internal">
        <lane id=":10696158509_0_0" index="0" allow="pedestrian delivery bicycle" speed="3.65" length="4.67" shape="1885.41,9.62 1885.57,8.19 1886.10,7.46 1886.99,7.45 1888.25,8.15"/>
    </edge>
    <edge id=":10750975533_0" function="internal">
        <lane id=":10750975533_0_0" index="0" allow="pedestrian delivery bicycle" speed="5.56" length="9.41" shape="997.53,434.15 995.88,443.42"/>
    </edge>
    <edge id=":10750975533_1" function="internal">
        <lane id=":10750975533_1_0" index="0" allow="pedestrian delivery bicycle" speed="5.56" length="10.37" shape="997.53,434.15 996.63,436.87 995.09,438.61 992.89,439.37 990.04,439.15"/>
    </edge>
    <edge id=":10750975533_2" function="internal">
        <lane id=":10750975533_2_0" index="0" allow="pedestrian delivery bicycle" speed="3.65" length="4.67" shape="997.53,434.15 996.53,435.19 995.67,435.45 994.96,434.91 994.38,433.59"/>
    </edge>
    <edge id=":10750975533_3" function="internal">
        <lane id=":10750975533_3_0" index="0" allow="pedestrian delivery bicycle" speed="5.00" length="5.05" shape="990.73,436.03 992.12,436.13 993.19,435.76 993.94,434.92 994.38,433.59"/>
    </edge>
    <edge id=":10750975533_4" function="internal">
        <lane id=":10750975533_4_0" index="0" allow="pedestrian delivery bicycle" speed="5.56" length="10.18" shape="990.73,436.03 993.38,437.01 995.13,438.56 995.96,440.70 995.88,443.42"/>
    </edge>
    <edge id=":10750975533_5" function="internal">
        <lane id=":10750975533_5_0" index="0" allow="pedestrian delivery bicycle" speed="3.65" length="4.67" shape="990.73,436.03 991.73,437.07 991.95,437.94 991.38,438.63 990.04,439.15"/>
    </edge>
    <edge id=":10750975533_6" function="internal">
        <lane id=":10750975533_6_0" index="0" allow="pedestrian delivery bicycle" speed="5.18" length="5.17" shape="992.73,442.85 992.76,441.50 992.32,440.44 991.42,439.65 990.04,439.15"/>
    </edge>
    <edge id=":10750975533_7" function="internal">
        <lane id=":10750975533_7_0" index="0" allow="pedestrian delivery bicycle" speed="5.56" length="9.41" shape="992.73,442.85 994.38,433.59"/>
    </edge>
    <edge id=":10750975533_8" function="internal">
        <lane id=":10750975533_8_0" index="0" allow="pedestrian delivery bicycle" speed="3.65" length="4.67" shape="992.73,442.85 993.73,441.81 994.59,441.56 995.30,442.10 995.88,443.42"/>
    </edge>
    <edge id=":10750975534_0" function="internal">
        <lane id=":10750975534_0_0" index="0" allow="pedestrian delivery bicycle" speed="4.90" length="5.18" shape="941.54,455.65 940.10,455.56 939.04,455.97 938.35,456.88 938.05,458.30"/>
    </edge>
    <edge id=":10750975534_1" function="internal">
        <lane id=":10750975534_1_0" index="0" allow="pedestrian delivery bicycle" speed="5.56" length="10.24" shape="941.54,455.65 938.75,454.71 936.81,453.23 935.71,451.22 935.46,448.66"/>
    </edge>
    <edge id=":10750975534_2" function="internal">
        <lane id=":10750975534_2_0" index="0" allow="pedestrian delivery bicycle" speed="3.65" length="4.67" shape="941.54,455.65 940.53,454.62 940.30,453.75 940.86,453.05 942.20,452.51"/>
    </edge>
    <edge id=":10750975534_3" function="internal">
        <lane id=":10750975534_3_0" index="0" allow="pedestrian delivery bicycle" speed="5.56" length="5.61" shape="938.66,448.86 938.81,450.17 939.45,451.21 940.58,451.99 942.20,452.51"/>
    </edge>
    <edge id=":10750975534_4" function="internal">
        <lane id=":10750975534_4_0" index="0" allow="pedestrian delivery bicycle" speed="5.56" length="9.46" shape="938.66,448.86 938.05,458.30"/>
    </edge>
    <edge id=":10750975534_5" function="internal">
        <lane id=":10750975534_5_0" index="0" allow="pedestrian delivery bicycle" speed="3.65" length="4.67" shape="938.66,448.86 937.78,450.01 936.96,450.36 936.19,449.91 935.46,448.66"/>
    </edge>
    <edge id=":10750975534_6" function="internal">
        <lane id=":10750975534_6_0" index="0" allow="pedestrian delivery bicycle" speed="5.56" length="9.44" shape="934.86,458.09 935.46,448.66"/>
    </edge>
    <edge id=":10750975534_7" function="internal">
        <lane id=":10750975534_7_0" index="0" allow="pedestrian delivery bicycle" speed="5.56" length="10.88" shape="934.86,458.09 935.49,455.11 936.93,453.19 939.16,452.32 942.20,452.51"/>
    </edge>
    <edge id=":10750975534_8" function="internal">
        <lane id=":10750975534_8_0" index="0" allow="pedestrian delivery bicycle" speed="3.65" length="4.67" shape="934.86,458.09 935.74,456.94 936.56,456.60 937.33,457.05 938.05,458.30"/>
    </edge>
    <edge id=":10750975535_0" function="internal">
        <lane id=":10750975535_0_0" index="0" allow="pedestrian delivery bicycle" speed="5.56" length="9.41" shape="992.96,459.78 991.30,469.05"/>
    </edge>
    <edge id=":10750975535_1" function="internal">
        <lane id=":10750975535_1_0" index="0" allow="pedestrian delivery bicycle" speed="5.56" length="10.30" shape="992.96,459.78 992.07,462.48 990.54,464.21 988.35,464.99 985.52,464.81"/>
    </edge>
    <edge id=":10750975535_2" function="internal">
        <lane id=":10750975535_2_0" index="0" allow="pedestrian delivery bicycle" speed="3.65" length="4.67" shape="992.96,459.78 991.96,460.82 991.10,461.08 990.39,460.54 989.81,459.22"/>
    </edge>
    <edge id=":10750975535_3" function="internal">
        <lane id=":10750975535_3_0" index="0" allow="pedestrian delivery bicycle" speed="5.01" length="5.03" shape="986.18,461.68 987.56,461.76 988.63,461.38 989.38,460.54 989.81,459.22"/>
    </edge>
    <edge id=":10750975535_4" function="internal">
        <lane id=":10750975535_4_0" index="0" allow="pedestrian delivery bicycle" speed="5.56" length="10.17" shape="986.18,461.68 988.83,462.62 990.57,464.17 991.39,466.31 991.30,469.05"/>
    </edge>
    <edge id=":10750975535_5" function="internal">
        <lane id=":10750975535_5_0" index="0" allow="pedestrian delivery bicycle" speed="3.65" length="4.67" shape="986.18,461.68 987.19,462.71 987.42,463.57 986.86,464.27 985.52,464.81"/>
    </edge>
    <edge id=":10750975535_6" function="internal">
        <lane id=":10750975535_6_0" index="0" allow="pedestrian delivery bicycle" speed="5.13" length="5.11" shape="988.15,468.48 988.19,467.12 987.77,466.06 986.88,465.29 985.52,464.81"/>
    </edge>
    <edge id=":10750975535_7" function="internal">
        <lane id=":10750975535_7_0" index="0" allow="pedestrian delivery bicycle" speed="5.56" length="9.40" shape="988.15,468.48 989.81,459.22"/>
    </edge>
    <edge id=":10750975535_8" function="internal">
        <lane id=":10750975535_8_0" index="0" allow="pedestrian delivery bicycle" speed="3.65" length="4.67" shape="988.15,468.48 989.15,467.44 990.01,467.19 990.73,467.72 991.30,469.05"/>
    </edge>
    <edge id=":122560751_0" function="internal">
        <lane id=":122560751_0_0" index="0" disallow="tram rail_urban rail rail_electric rail_fast ship container cable_car subway aircraft wheelchair scooter drone" speed="6.08" length="7.61" shape="2081.28,1800.96 2080.94,1803.01 2080.02,1804.48 2078.54,1805.36 2076.48,1805.65"/>
    </edge>
    <edge id=":122560751_1" function="internal">
        <lane id=":122560751_1_0" index="0" disallow="tram rail_urban rail rail_electric rail_fast ship container cable_car subway aircraft wheelchair scooter drone" speed="3.91" length="2.54" shape="2076.48,1802.45 2077.16,1802.35 2077.66,1802.06 2077.96,1801.57 2078.08,1800.89"/>
    </edge>
    <edge id=":122560753_0" function="internal">
        <lane id=":122560753_0_0" index="0" disallow="tram rail_urban rail rail_electric rail_fast ship container cable_car subway aircraft wheelchair scooter drone" speed="13.89" length="14.36" shape="2090.79,1691.70 2088.89,1705.94"/>
    </edge>
    <edge id=":122560753_1" function="internal">
        <lane id=":122560753_1_0" index="0" disallow="tram rail_urban rail rail_electric rail_fast ship container cable_car subway aircraft wheelchair scooter drone" speed="8.37" length="3.85" shape="2090.79,1691.70 2089.72,1695.28 2089.65,1695.37"/>
    </edge>
    <edge id=":122560753_2" function="internal">
        <lane id=":122560753_2_0" index="0" disallow="tram rail_urban rail rail_electric rail_fast ship container cable_car subway aircraft wheelchair scooter drone" speed="3.65" length="1.44" shape="2090.79,1691.70 2089.83,1692.78"/>
    </edge>
    <edge id=":122560753_9" function="internal">
        <lane id=":122560753_9_0" index="0" disallow="tram rail_urban rail rail_electric rail_fast ship container cable_car subway aircraft wheelchair scooter drone" speed="8.37" length="10.47" shape="2089.65,1695.37 2087.68,1697.80 2084.67,1699.25 2080.68,1699.64"/>
    </edge>
    <edge id=":122560753_10" function="internal">
        <lane id=":122560753_10_0" index="0" disallow="tram rail_urban rail rail_electric rail_fast ship container cable_car subway aircraft wheelchair scooter drone" speed="3.65" length="3.23" shape="2089.83,1692.78 2088.98,1693.06 2088.24,1692.55 2087.62,1691.25"/>
    </edge>
    <edge id=":122560753_3" function="internal">
        <lane id=":122560753_3_0" index="0" disallow="tram rail_urban rail rail_electric rail_fast ship container cable_car subway aircraft wheelchair scooter drone" speed="6.94" length="9.56" shape="2080.79,1696.44 2083.49,1696.19 2085.53,1695.24 2086.91,1693.60 2087.62,1691.25"/>
    </edge>
    <edge id=":122560753_4" function="internal">
        <lane id=":122560753_4_0" index="0" disallow="tram rail_urban rail rail_electric rail_fast ship container cable_car subway aircraft wheelchair scooter drone" speed="7.84" length="14.56" shape="2080.79,1696.44 2084.77,1697.15 2087.44,1698.96 2088.82,1701.89 2088.89,1705.94"/>
    </edge>
    <edge id=":122560753_5" function="internal">
        <lane id=":122560753_5_0" index="0" disallow="tram rail_urban rail rail_electric rail_fast ship container cable_car subway aircraft wheelchair scooter drone" speed="3.65" length="4.67" shape="2080.79,1696.44 2081.96,1697.28 2082.33,1698.09 2081.91,1698.88 2080.68,1699.64"/>
    </edge>
    <edge id=":122560753_6" function="internal">
        <lane id=":122560753_6_0" index="0" disallow="tram rail_urban rail rail_electric rail_fast ship container cable_car subway aircraft wheelchair scooter drone" speed="6.31" length="9.04" shape="2085.72,1705.54 2085.67,1703.03 2084.82,1701.21 2083.15,1700.08 2080.68,1699.64"/>
    </edge>
    <edge id=":122560753_7" function="internal">
        <lane id=":122560753_7_0" index="0" disallow="tram rail_urban rail rail_electric rail_fast ship container cable_car subway aircraft wheelchair scooter drone" speed="13.89" length="14.41" shape="2085.72,1705.54 2087.62,1691.25"/>
    </edge>
    <edge id=":122560753_8" function="internal">
        <lane id=":122560753_8_0" index="0" disallow="tram rail_urban rail rail_electric rail_fast ship container cable_car subway aircraft wheelchair scooter drone" speed="3.65" length="1.44" shape="2085.72,1705.54 2086.66,1704.44"/>
    </edge>
    <edge id=":122560753_11" function="internal">
        <lane id=":122560753_11_0" index="0" disallow="tram rail_urban rail rail_electric rail_fast ship container cable_car subway aircraft wheelchair scooter drone" speed="3.65" length="3.23" shape="2086.66,1704.44 2087.50,1704.15 2088.25,1704.64 2088.89,1705.94"/>
    </edge>
    <edge id=":122560756_0" function="internal">
        <lane id=":122560756_0_0" index="0" disallow="tram rail_urban rail rail_electric rail_fast ship container cable_car subway aircraft wheelchair scooter drone" speed="6.96" length="9.39" shape="2100.73,1662.68 2098.13,1663.00 2096.17,1663.99 2094.84,1665.65 2094.14,1667.99"/>
    </edge>
    <edge id=":122560756_1" function="internal">
        <lane id=":122560756_1_0" index="0" disallow="tram rail_urban rail rail_electric rail_fast ship container cable_car subway aircraft wheelchair scooter drone" speed="7.98" length="14.23" shape="2100.73,1662.68 2096.87,1662.10 2094.13,1660.43 2092.51,1657.65 2092.02,1653.78"/>
    </edge>
    <edge id=":122560756_2" function="internal">
        <lane id=":122560756_2_0" index="0" disallow="tram rail_urban rail rail_electric rail_fast ship container cable_car subway aircraft wheelchair scooter drone" speed="3.65" length="4.67" shape="2100.73,1662.68 2099.54,1661.87 2099.14,1661.07 2099.54,1660.27 2100.75,1659.48"/>
    </edge>
    <edge id=":122560756_3" function="internal">
        <lane id=":122560756_3_0" index="0" disallow="tram rail_urban rail rail_electric rail_fast ship container cable_car subway aircraft wheelchair scooter drone" speed="6.49" length="9.03" shape="2095.22,1653.83 2095.53,1656.29 2096.56,1658.05 2098.30,1659.11 2100.75,1659.48"/>
    </edge>
    <edge id=":122560756_4" function="internal">
        <lane id=":122560756_4_0" index="0" disallow="tram rail_urban rail rail_electric rail_fast ship container cable_car subway aircraft wheelchair scooter drone" speed="13.89" length="14.21" shape="2095.22,1653.83 2095.12,1657.45 2094.91,1660.93 2094.59,1664.39 2094.14,1667.99"/>
    </edge>
    <edge id=":122560756_5" function="internal">
        <lane id=":122560756_5_0" index="0" disallow="tram rail_urban rail rail_electric rail_fast ship container cable_car subway aircraft wheelchair scooter drone" speed="3.65" length="1.44" shape="2095.22,1653.83 2094.40,1655.02"/>
    </edge>
    <edge id=":122560756_9" function="internal">
        <lane id=":122560756_9_0" index="0" disallow="tram rail_urban rail rail_electric rail_fast ship container cable_car subway aircraft wheelchair scooter drone" speed="3.65" length="3.23" shape="2094.40,1655.02 2093.60,1655.40 2092.80,1654.99 2092.02,1653.78"/>
    </edge>
    <edge id=":122560756_6" function="internal">
        <lane id=":122560756_6_0" index="0" disallow="tram rail_urban rail rail_electric rail_fast ship container cable_car subway aircraft wheelchair scooter drone" speed="13.89" length="13.81" shape="2090.97,1667.54 2091.42,1664.00 2091.73,1660.68 2091.92,1657.34 2092.02,1653.78"/>
    </edge>
    <edge id=":122560756_7" function="internal">
        <lane id=":122560756_7_0" index="0" disallow="tram rail_urban rail rail_electric rail_fast ship container cable_car subway aircraft wheelchair scooter drone" speed="8.38" length="3.81" shape="2090.97,1667.54 2092.01,1663.99 2092.08,1663.90"/>
    </edge>
    <edge id=":122560756_8" function="internal">
        <lane id=":122560756_8_0" index="0" disallow="tram rail_urban rail rail_electric rail_fast ship container cable_car subway aircraft wheelchair scooter drone" speed="3.65" length="1.44" shape="2090.97,1667.54 2091.93,1666.46"/>
    </edge>
    <edge id=":122560756_10" function="internal">
        <lane id=":122560756_10_0" index="0" disallow="tram rail_urban rail rail_electric rail_fast ship container cable_car subway aircraft wheelchair scooter drone" speed="8.38" length="10.25" shape="2092.08,1663.90 2093.99,1661.47 2096.90,1659.96 2100.75,1659.48"/>
    </edge>
    <edge id=":122560756_11" function="internal">
        <lane id=":122560756_11_0" index="0" disallow="tram rail_urban rail rail_electric rail_fast ship container cable_car subway aircraft wheelchair scooter drone" speed="3.65" length="3.23" shape="2091.93,1666.46 2092.78,1666.18 2093.52,1666.69 2094.14,1667.99"/>
    </edge>
    <edge id=":122560758_0" function="internal">
        <lane id=":122560758_0_0" index="0" disallow="tram rail_urban rail rail_electric rail_fast ship container cable_car subway aircraft wheelchair scooter drone" speed="13.89" length="14.41" shape="2097.57,1503.91 2097.36,1518.32"/>
    </edge>
    <edge id=":122560758_1" function="internal">
        <lane id=":122560758_1_0" index="0" disallow="tram rail_urban rail rail_electric rail_fast ship container cable_car subway aircraft wheelchair scooter drone" speed="7.99" length="4.08" shape="2097.57,1503.91 2096.97,1507.76 2096.87,1507.91"/>
    </edge>
    <edge id=":122560758_2" function="internal">
        <lane id=":122560758_2_0" index="0" disallow="tram rail_urban rail rail_electric rail_fast ship container cable_car subway aircraft wheelchair scooter drone" speed="3.65" length="1.44" shape="2097.57,1503.91 2096.76,1505.10"/>
    </edge>
    <edge id=":122560758_9" function="internal">
        <lane id=":122560758_9_0" index="0" disallow="tram rail_urban rail rail_electric rail_fast ship container cable_car subway aircraft wheelchair scooter drone" speed="7.99" length="10.13" shape="2096.87,1507.91 2095.28,1510.49 2092.51,1512.09 2088.64,1512.58"/>
    </edge>
    <edge id=":122560758_10" function="internal">
        <lane id=":122560758_10_0" index="0" disallow="tram rail_urban rail rail_electric rail_fast ship container cable_car subway aircraft wheelchair scooter drone" speed="3.65" length="3.23" shape="2096.76,1505.10 2095.95,1505.49 2095.16,1505.08 2094.37,1503.87"/>
    </edge>
    <edge id=":122560758_3" function="internal">
        <lane id=":122560758_3_0" index="0" disallow="tram rail_urban rail rail_electric rail_fast ship container cable_car subway aircraft wheelchair scooter drone" speed="6.50" length="9.03" shape="2088.69,1509.38 2091.15,1509.07 2092.92,1508.05 2093.99,1506.31 2094.37,1503.87"/>
    </edge>
    <edge id=":122560758_4" function="internal">
        <lane id=":122560758_4_0" index="0" disallow="tram rail_urban rail rail_electric rail_fast ship container cable_car subway aircraft wheelchair scooter drone" speed="8.01" length="14.20" shape="2088.69,1509.38 2092.54,1509.99 2095.27,1511.69 2096.88,1514.46 2097.36,1518.32"/>
    </edge>
    <edge id=":122560758_5" function="internal">
        <lane id=":122560758_5_0" index="0" disallow="tram rail_urban rail rail_electric rail_fast ship container cable_car subway aircraft wheelchair scooter drone" speed="3.65" length="4.67" shape="2088.69,1509.38 2089.88,1510.20 2090.27,1511.01 2089.85,1511.80 2088.64,1512.58"/>
    </edge>
    <edge id=":122560758_6" function="internal">
        <lane id=":122560758_6_0" index="0" disallow="tram rail_urban rail rail_electric rail_fast ship container cable_car subway aircraft wheelchair scooter drone" speed="6.51" length="9.04" shape="2094.17,1518.27 2093.85,1515.82 2092.83,1514.05 2091.09,1512.97 2088.64,1512.58"/>
    </edge>
    <edge id=":122560758_7" function="internal">
        <lane id=":122560758_7_0" index="0" disallow="tram rail_urban rail rail_electric rail_fast ship container cable_car subway aircraft wheelchair scooter drone" speed="13.89" length="14.40" shape="2094.17,1518.27 2094.37,1503.87"/>
    </edge>
    <edge id=":122560758_8" function="internal">
        <lane id=":122560758_8_0" index="0" disallow="tram rail_urban rail rail_electric rail_fast ship container cable_car subway aircraft wheelchair scooter drone" speed="3.65" length="1.44" shape="2094.17,1518.27 2094.98,1517.08"/>
    </edge>
    <edge id=":122560758_11" function="internal">
        <lane id=":122560758_11_0" index="0" disallow="tram rail_urban rail rail_electric rail_fast ship container cable_car subway aircraft wheelchair scooter drone" speed="3.65" length="3.23" shape="2094.98,1517.08 2095.79,1516.70 2096.58,1517.11 2097.36,1518.32"/>
    </edge>
    <edge id=":122560760_0" function="internal">
        <lane id=":122560760_0_0" index="0" disallow="tram rail_urban rail rail_electric rail_fast ship container cable_car subway aircraft wheelchair scooter drone" speed="13.89" length="14.48" shape="2098.68,1407.91 2098.62,1422.40"/>
    </edge>
    <edge id=":122560760_1" function="internal">
        <lane id=":122560760_1_0" index="0" disallow="tram rail_urban rail rail_electric rail_fast ship container cable_car subway aircraft wheelchair scooter drone" speed="7.96" length="4.15" shape="2098.68,1407.91 2098.14,1411.80 2098.03,1411.99"/>
    </edge>
    <edge id=":122560760_2" function="internal">
        <lane id=":122560760_2_0" index="0" disallow="tram rail_urban rail rail_electric rail_fast ship container cable_car subway aircraft wheelchair scooter drone" speed="3.65" length="1.44" shape="2098.68,1407.91 2097.89,1409.12"/>
    </edge>
    <edge id=":122560760_9" function="internal">
        <lane id=":122560760_9_0" index="0" disallow="tram rail_urban rail rail_electric rail_fast ship container cable_car subway aircraft wheelchair scooter drone" speed="7.96" length="10.13" shape="2098.03,1411.99 2096.49,1414.55 2093.71,1416.18 2089.82,1416.66"/>
    </edge>
    <edge id=":122560760_10" function="internal">
        <lane id=":122560760_10_0" index="0" disallow="tram rail_urban rail rail_electric rail_fast ship container cable_car subway aircraft wheelchair scooter drone" speed="3.65" length="3.23" shape="2097.89,1409.12 2097.09,1409.52 2096.29,1409.12 2095.48,1407.93"/>
    </edge>
    <edge id=":122560760_3" function="internal">
        <lane id=":122560760_3_0" index="0" disallow="tram rail_urban rail rail_electric rail_fast ship container cable_car subway aircraft wheelchair scooter drone" speed="6.46" length="9.03" shape="2089.87,1413.46 2092.34,1413.16 2094.09,1412.13 2095.14,1410.39 2095.48,1407.93"/>
    </edge>
    <edge id=":122560760_4" function="internal">
        <lane id=":122560760_4_0" index="0" disallow="tram rail_urban rail rail_electric rail_fast ship container cable_car subway aircraft wheelchair scooter drone" speed="8.03" length="14.24" shape="2089.87,1413.46 2093.74,1414.08 2096.49,1415.77 2098.12,1418.55 2098.62,1422.40"/>
    </edge>
    <edge id=":122560760_5" function="internal">
        <lane id=":122560760_5_0" index="0" disallow="tram rail_urban rail rail_electric rail_fast ship container cable_car subway aircraft wheelchair scooter drone" speed="3.65" length="4.67" shape="2089.87,1413.46 2091.06,1414.29 2091.45,1415.09 2091.03,1415.88 2089.82,1416.66"/>
    </edge>
    <edge id=":122560760_6" function="internal">
        <lane id=":122560760_6_0" index="0" disallow="tram rail_urban rail rail_electric rail_fast ship container cable_car subway aircraft wheelchair scooter drone" speed="6.54" length="9.10" shape="2095.42,1422.35 2095.10,1419.90 2094.06,1418.14 2092.30,1417.06 2089.82,1416.66"/>
    </edge>
    <edge id=":122560760_7" function="internal">
        <lane id=":122560760_7_0" index="0" disallow="tram rail_urban rail rail_electric rail_fast ship container cable_car subway aircraft wheelchair scooter drone" speed="13.89" length="14.43" shape="2095.42,1422.35 2095.48,1407.93"/>
    </edge>
    <edge id=":122560760_8" function="internal">
        <lane id=":122560760_8_0" index="0" disallow="tram rail_urban rail rail_electric rail_fast ship container cable_car subway aircraft wheelchair scooter drone" speed="3.65" length="1.44" shape="2095.42,1422.35 2096.24,1421.17"/>
    </edge>
    <edge id=":122560760_11" function="internal">
        <lane id=":122560760_11_0" index="0" disallow="tram rail_urban rail rail_electric rail_fast ship container cable_car subway aircraft wheelchair scooter drone" speed="3.65" length="3.23" shape="2096.24,1421.17 2097.04,1420.78 2097.84,1421.19 2098.62,1422.40"/>
    </edge>
    <edge id=":122560761_0" function="internal">
        <lane id=":122560761_0_0" index="0" disallow="tram rail_urban rail rail_electric rail_fast ship container cable_car subway aircraft wheelchair scooter drone" speed="6.58" length="9.12" shape="2095.15,1327.33 2094.79,1324.84 2093.73,1323.05 2091.99,1321.96 2089.55,1321.57"/>
    </edge>
    <edge id=":122560761_1" function="internal">
        <lane id=":122560761_1_0" index="0" disallow="tram rail_urban rail rail_electric rail_fast ship container cable_car subway aircraft wheelchair scooter drone" speed="7.97" length="14.27" shape="2095.15,1327.33 2095.68,1323.45 2097.34,1320.69 2100.11,1319.07 2104.00,1318.57"/>
    </edge>
    <edge id=":122560761_2" function="internal">
        <lane id=":122560761_2_0" index="0" disallow="tram rail_urban rail rail_electric rail_fast ship container cable_car subway aircraft wheelchair scooter drone" speed="3.65" length="4.67" shape="2095.15,1327.33 2095.94,1326.13 2096.74,1325.72 2097.54,1326.12 2098.35,1327.32"/>
    </edge>
    <edge id=":122560761_3" function="internal">
        <lane id=":122560761_3_0" index="0" disallow="tram rail_urban rail rail_electric rail_fast ship container cable_car subway aircraft wheelchair scooter drone" speed="6.47" length="9.03" shape="2103.95,1321.77 2101.49,1322.09 2099.74,1323.11 2098.69,1324.86 2098.35,1327.32"/>
    </edge>
    <edge id=":122560761_4" function="internal">
        <lane id=":122560761_4_0" index="0" disallow="tram rail_urban rail rail_electric rail_fast ship container cable_car subway aircraft wheelchair scooter drone" speed="13.41" length="14.41" shape="2103.95,1321.77 2089.55,1321.57"/>
    </edge>
    <edge id=":122560761_5" function="internal">
        <lane id=":122560761_5_0" index="0" disallow="tram rail_urban rail rail_electric rail_fast ship container cable_car subway aircraft wheelchair scooter drone" speed="3.65" length="1.44" shape="2103.95,1321.77 2102.76,1320.95"/>
    </edge>
    <edge id=":122560761_9" function="internal">