<?xml version="1.0" encoding="UTF-8"?>

<!-- generated on 2025-05-02 17:16:19 by Eclipse SUMO netedit Version 1.22.0
-->

<routes xmlns:xsi="http://www.w3.org/2001/XMLSchema-instance" xsi:noNamespaceSchemaLocation="http://sumo.dlr.de/xsd/routes_file.xsd">
    <!-- VTypes -->
    <vType id="bus" vClass="bus"/>
    <!-- Vehicles, persons and containers (sorted by depart) -->
    <trip id="bus1" type="bus" depart="0.00" from="-405356692" to="192368811#1" via="-405356685 -405356693#2 -405356693#1 -405356693#0 -405356899 -13280795#9 13383337#3 13383337#4 -13405538#13 -13405538#12 -13405538#11 -13405538#9 -13405538#8 -13405538#7 -13405538#6 -13405538#5 -13405538#4 -13405538#3 156415834#1 156415834#2 156415834#3 156415834#4 156415834#5 156415834#6 156415834#7 156415834#8 156415834#9 246748567#0 246748567#1 246748567#2 246748567#3 246748567#4 246748567#5 246748567#6 246748567#7 246748567#8 246748567#9 246748567#10 246748567#11 246748567#12 246748567#13 246748567#14 246748567#15 246748567#16 246748567#17 246748567#18 246748567#19 246748567#21 246748567#22 246748567#23 246748567#24 246748567#25 246748567#26 246748567#27 246748567#28 246748567#30 -13372156#6 -13372156#4 -13372156#3 -13372156#2 -13372156#1 -13372156#0 607802968#2 405356911#2 405356905 405356901 405356908 -13400529#12 -13400529#11 -13400529#10 -13400529#8 -13400529#7 -13400529#6 -13400529#5 -13400529#4 -13400529#3 -13400529#2 -13400529#1 -13400529#0 -405356906#1 405356957#0 13301614#0 13301614#1 13301614#2 13301614#4 405356960 405356961#1 405356961#3 405356961#4 405356959 233019445#1 192368811#0"/>
    <trip id="bus2" type="bus" depart="0.00" from="405373680#0" to="312371367" via="405373680#1 405373680#2 405373680#3 405356994 405357000 405356988 405356981 405356986 405356963 405356987 405356989 405356971#0 405356971#1 405356997 405356993#0 405356993#1 405356984#0 405356984#1 405356992 405357003 983125881#0 983125881#1 983125881#2 405356978 405356975 203028887 405356970 405356979#0 405356979#1 405356962 405356965 405356990#1 405356990#2 405356976#0 405356976#1 405356996 405356966 405356995 715827985 405356999 405356974 405356991 405357002 405357001 405356969 405356983 405356998 -405356967 -405357004#2 -405357004#1 -405357004#0 -405356980#1 405356973#0 203028817#0 203028817#1 203028817#2 405356968#0 405357069#0"/>
    <trip id="bus3" type="bus" depart="0.00" from="295700308#0" to="405378472#3" via="1036516251 405329051#0 -405328913#1 -405328887 -185735869 -1318025801#1 -405328884#1 -405328889 -405328902#1 405328908#0 405328909 405328879#0 405328907#0 405328922#0 405328922#1 405328923 605497769 405328897#0 561836203#0 405328914 104358670#0 405328900#0 405328904 405328910 405328905#0 405328903#0 405328901 405328912 405328868#0 405328886#0 405328888 203028843 405328881#0 405328861 405328891#0 405328915#0 405328917 405328876#0 405328906#0 405328890 390919411#0 405328898#0 405328899 405328871#0 405328921#0 405328921#2 405328916#0 405328894#0 405328864#0 405328869#0 405328869#1 405328918#0 405328911#0 405328925#0 405328925#1 405328924#0 405328924#1 405328924#2 405328866#0 405328892#0 405328892#1 405328920 405328875 405328919 405378472#0 405378472#2"/>
    <trip id="bus4" type="bus" depart="0.00" from="-405356845#1" to="-405356938" via="-405356845#0 629470694#1 629470694#2 629470694#3 629470693#0 629470693#1 629470692 1036461004 1036461002#0 1036461002#1 -405356827#1 -405356827#0 -405356824#3 -405356824#2 -405356824#1 -405356824#0 -405356821#0 -405356832#1 -405356832#0 -405356848 -405356846 385937986 1280775536 405356835 405356852 405356842 405356853#0 -405356843#1 -405356843#0 -405356825 -1364760966#5 -1364760966#3 -1364760966#2 -1364760966#0 -1364760967 -405356826 -405356831 -1266676371#2 -1266676371#1 -1266676371#0 -405356849#2 -405356849#1 -405356849#0 -405356851#1 -405356851#0 -405356939#1 -405356937#1 -405356937#0 237056448#0 237056448#1 237056450 405356936 237056455 237056457 415797884"/>
    <trip id="bus5" type="bus" depart="0.00" from="119259554" to="123570148" via="866531345 866531345-AddedOffRampEdge 1343728842 866531344 123951231 123951231-AddedOffRampEdge 866337573 866337573-AddedOffRampEdge 156460301 156460301-AddedOffRampEdge"/>
    <flow id="car1" begin="0.00" color="cyan" from="-203028825#3" to="-405373617" via="-203028825#2 -203028825#1 -203028825#0 -405356692 -405356685 -405356693#2 -405356693#1 -405356693#0 -405356677 -405356704#6 -405356704#4 -405356704#3 -405356704#2 -405356704#1 -405356704#0 -405356672#1 -405356672#0 -405356705#7 -405356705#6 -405356705#5 -405356705#4 -405356705#3 -405356705#2 -405356705#1 -405356705#0 -405356689 -405356688 -405356691#3 -405356691#2 -405356691#1 -405356691#0 -405356670 -405356679#1 -405356680 -405356687#1 -405356687#0 -405356678 -405356686 -405356683#9 -405356683#8 -405356683#7 -405356683#6 -405356683#5 -405356683#4 -405356683#3 -405356683#2 -405356683#1 405356698#0 405356698#1 405356698#2 405356702 1036461005 405356706#0 405356706#1 -405356695#4 -405356695#3 -405356695#1 -405356695#0 -405356684#1 -405356684#0 -405356674#1 -405356674#0 -405356681 -405356671 -405356675 -405356682 -405356676 -405373635 -405373615" end="3600.00" vehsPerHour="800"/>
    <flow id="car2" begin="0.00" color="cyan" from="405373637" to="203028825#3" via="405373617 405373615 405373635 405356676 405356682 405356675 405356671 405356681 405356674#0 405356674#1 405356684#0 405356684#1 405356695#0 405356695#1 405356695#3 405356695#4 405356694 405356696#0 405356696#1 1036461001#0 1036461001#1 405356683#1 405356683#2 405356683#3 405356683#4 405356683#5 405356683#6 405356683#7 405356683#8 405356683#9 405356683#10 405356678 405356687#0 405356687#1 405356680 405356679#1 405356670 405356691#0 405356691#1 405356691#2 405356691#3 405356688 405356689 405356705#0 405356705#1 405356705#2 405356705#3 405356705#4 405356705#5 405356705#6 405356705#7 405356705#8 405356672#1 405356704#0 405356704#1 405356704#2 405356704#3 405356704#4 405356704#6 405356704#7 405356673 405356693#1 405356693#2 405356685 405356692 203028825#0 203028825#1 203028825#2" end="3600.00" vehsPerHour="800"/>
    <flow id="car3" begin="0.00" color="cyan" from="13403804#0" to="607103549" via="390794825#0 390794825#1 156415834#0 156415834#1 156415834#2 156415834#3 156415834#4 156415834#5 156415834#6 156415834#7 156415834#8 156415834#9 246748567#0 246748567#1 246748567#2 246748567#3 246748567#4 246748567#5 246748567#6 246748567#7 246748567#8 246748567#9 246748567#10 246748567#11 246748567#12 246748567#13 246748567#14 246748567#15 246748567#16 246748567#17 246748567#18 246748567#19 246748567#21 246748567#22 246748567#23 246748567#24 246748567#25 246748567#26 246748567#27 246748567#28 246748567#30 246748567#31 246748567#32 -13347602#2 -13347602#1 -13347602#0 390919066 607802968#0 607802968#1 607802968#2 405328946#1 405328946#2 405328946#3 405328940#0 405328940#1 1280764975 405328944#0 405328944#1 405328944#2 398232261#1 398232261#2 398232261#3 398232261#4 398232261#5 398232261#6 398232261#7 398232261#8 971569927 971569928#0 971569928#1 971569928#2 971569928#3 1350177246" end="3600.00" vehsPerHour="800"/>
    <flow id="car4" begin="0.00" color="cyan" from="13420705#0" to="405356830#1" via="13420705#1 13420705#2 415788598#0 415788598#1 1029274943 167078559#0 167078559#1 607202793 405356666 405356665 1057097344#1 1057097342 405356668#1 1057097343 203028875#0 203028875#1 203028875#4 203028875#5 203028875#6 203028875#7 203028875#8 203028875#9 203028875#10 203028875#11 1057089478 1067483736 405356942 405356937#1 405356939#0 405356841#0 405356851#1 405356849#0 405356849#1 405356849#2 1266676371#0 1266676371#1 1266676371#2 405356831 405356826 1364760967 1364760966#0 1364760966#2 1364760966#3 1364760966#5 405356825 405356843#0 405356843#1 670645317 405356829#0 405356836 173415946 173415947 385937988 1280764976#0 1280764976#1 405356846 1280775535 405356834 405356832#1 405356832#2 405356824#0 405356824#1 405356824#2 405356824#3 405356824#4 405356827#1 405356847#0 405356847#1 405356833#0 405356833#1 405356837 405356840 1036461000" end="3600.00" vehsPerHour="800"/>
    <flow id="car5" begin="0.00" color="cyan" from="-17199609#1" to="405356785#3" via="-17199609#0 -405356772 -405356783#1 -405356783#0 -405356789#11 -405356789#10 -405356789#9 -405356789#8 -405356789#7 -405356789#6 -405356789#5 -405356789#4 -405356789#3 -405356789#1 -405356789#0 -405356782#0 -405356776 -405356786 -405356788#2 -405356788#1 -405356788#0 -405356780 -405356858 -405356854#2 -405356854#1 -405356854#0 -405356859#1 -405356859#0 -405356857#1 -405356857#0 -40314818#3 -40314818#2 -40314818#1 -40314818#0 -561836207 -1356842338 -405356860 -405356856#1 -405356856#0 -405356863 405356769#0 405356774 405356781 405356777#1 17212339#0 17212339#1 17212339#2 405356784 405356785#1" end="3600.00" vehsPerHour="800"/>
    <flow id="car6" begin="0.00" color="cyan" from="405328953#0" to="405329022" via="405328953#2 405356819 405328958 71738721 1336489163 1336489164#0 1336489164#1 1336489164#2 390794826#1 390794826#2 390794826#3 390794826#5 390794826#6 71738723 405328960#0 185913061 405328929 405328930#0 405328928#0 405328927#0 405328938 405328936 405328933 71738860#0 71738860#1 71738860#2 405329041#0 405329045#0 405329045#1 405329032 167077299#0 167077299#1 167077299#3 167077299#4 167077299#5 167077299#6 558766204 405329046" end="3600.00" vehsPerHour="800"/>
</routes>
