<?xml version='1.0' encoding='utf-8'?>
<routes xmlns:xsi="http://www.w3.org/2001/XMLSchema-instance" xsi:noNamespaceSchemaLocation="http://sumo.dlr.de/xsd/routes_file.xsd">
    <vType id="bus" vClass="bus" accel="1.0" decel="4.5" length="12" minGap="3.0" maxSpeed="25"/>
    <route id="t163-b2736-sl4" edges="59712267#0 59712267#1 59712267#2 59712267#3 59712267#5 59712267#6 59712267#7 59712267#8 59712267#9 405544796#0 405544796#2 405544796#3 405544796#4 405544796#5 405544796#6 405544796#7 405544796#8 405544796#8-AddedOffRampEdge 405544796#9 405544796#10 405544792#0 414764044#0 414764044#2 405545577#0 405545577#1 405545577#2 405545577#3 405545577#4 604060295#0 604060295#1 604060297 604060294#0 1036500992 414764043 59714507#0 -406215639#2 -690987761 -406215627 -406504587 -72011935#9 -72011935#8 -72011935#7 -72011935#6 -72011935#5 -72011935#4 -72011935#3 -72011935#2 -72011935#1 -72011935#0 72011935#0 72011935#1 72011935#2 72011935#3 72011935#4 72011935#5 72011935#6 72011935#7 72011935#8 72011935#9 406504587 690987758 690987761 406215639#0 414764044#0 414764044#2 405545577#0 405545577#1 405545577#2 405545577#3 405545577#4 604060295#0 604060295#1 604060296#0 604060296#1 604060296#3 604060296#4 604060296#5 604060296#6 604060296#7 604060296#8 604060296#9 405545583#0 405545584#0 405545584#2 1014617514#0 1014617514#1 1014617514#2 405545580#0 405545580#1 604060292 604060288 604060287 1264201012#0 1264201012#1 604060286#0 604060286#1 405545581#0 405545581#1 405545581#2 405545581#3 406234624#0 630143605 406233348 406233343 406233349#0 406232664#0 406232647#1 406232647#2 406232641#0 406232649#0 1014021506 406232653#1 406232653#2 406232653#3 406232653#4 406232656 406232643#0 406232645 4619023#1 4619023#2 406232660 406232651 406232662#1 406232662#2 406232658#0 43080181#0">
        <stop busStop="t163-b2736-sl4.0" duration="10" until="0" /> 
        <stop busStop="t163-b2736-sl4.1" duration="10" until="49" /> 
        <stop busStop="t163-b2736-sl4.2" duration="10" until="118" /> 
        <stop busStop="t163-b2736-sl4.3" duration="10" until="196" /> 
        <stop busStop="t163-b2736-sl4.4" duration="10" until="275" /> 
        <stop busStop="t163-b2736-sl4.5" duration="10" until="370" /> 
        <stop busStop="t163-b2736-sl4.6" duration="10" until="437" /> 
        <stop busStop="t163-b2736-sl4.7" duration="10" until="477" /> 
        <stop busStop="t163-b2736-sl4.8" duration="10" until="509" /> 
        <stop busStop="t163-b2736-sl4.9" duration="10" until="545" /> 
        <stop busStop="t163-b2736-sl4.10" duration="10" until="592" /> 
    </route>
    <route id="t1B3-b2739-sl4" edges="755844281#0 755844267 755844268#0 755844268#1 755844268#2 755844268#3 755844263 1018517761 755844278#0 755844278#1 755844278#2 755844262#0 755844277#0 755844275#0 755844275#1 755844275#2 755844261#0 755844274 755844260#0 259846930#0 259846930#2 259846930#3 1008405679 406233345#0 406233345#1 1065518636#0 406233346#0 406233346#1 334631993#1 406233344 640278675 192503244#0 192503244#2 192503244#3 405546351 405546352 405546350#0 405546350#1 405546357#0 405546357#1 405546357#2 405546357#3 405546357#4 405546357#5 405546357#6 525615994 525615993 405546353 405546349 405546354 405546355 405546348 405546356#0 405546356#1 405546356#2 405546356#3 405546347#0 334631554#0 604060294#0 1036500992 414764043 405544793#1 405544795#0 334267468#0 334267468#2 334267468#3 334267468#4 334267468#5 334267468#6 334267468#7 334267468#8 334267468#9 334267468#10 334267468#11 334267468#12 59712271#0 59712271#2 59712271#3 59712271#4 59712271#5 59712271#6 59712271#7 982784187#0 982784187#1 405543904#0 59712276#0">
        <stop busStop="t1B3-b2739-sl4.0" duration="10" until="0" /> 
        <stop busStop="t1B3-b2739-sl4.1" duration="10" until="46" /> 
        <stop busStop="t1B3-b2739-sl4.2" duration="10" until="84" /> 
        <stop busStop="t1B3-b2739-sl4.3" duration="10" until="149" /> 
        <stop busStop="t1B3-b2739-sl4.4" duration="10" until="256" /> 
        <stop busStop="t1B3-b2739-sl4.5" duration="10" until="309" /> 
        <stop busStop="t163-b2736-sl4.3" duration="10" until="364" /> 
        <stop busStop="t1B3-b2739-sl4.7" duration="10" until="413" /> 
        <stop busStop="t1B3-b2739-sl4.8" duration="10" until="482" /> 
        <stop busStop="t1B3-b2739-sl4.9" duration="10" until="529" /> 
    </route>
    <vehicle id="t163-b2736-sl4.0" route="t163-b2736-sl4" type="bus" depart="3" line="t163-b2736-sl4">
        <param key="gtfs.route_name" value="187" />
        <param key="gtfs.trip_headsign" value="East: Azusa" />
    </vehicle>
    <vehicle id="t1B3-b2739-sl4.0" route="t1B3-b2739-sl4" type="bus" depart="2" line="t1B3-b2739-sl4">
        <param key="gtfs.route_name" value="187" />
        <param key="gtfs.trip_headsign" value="West: Pasadena" />
    </vehicle>
    </routes>