<routes>
    <vehicle id="t1A9-b1601D-sl4" route="t1A9-b1601D-sl4" type="bus" depart="19997" line="t1A9-b1601D-sl4">
        <param key="gtfs.route_name" value="492"/>
        <param key="gtfs.trip_headsign" value="West: El Monte Station"/>
    </vehicle>
    <vehicle id="t1BD-b1601E-sl4" route="t1A9-b1601D-sl4" type="bus" depart="21197" line="t1A9-b1601D-sl4">
        <param key="gtfs.route_name" value="492"/>
        <param key="gtfs.trip_headsign" value="West: El Monte Station"/>
    </vehicle>
    <vehicle id="t1F9-b16021-sl4" route="t1A9-b1601D-sl4" type="bus" depart="22397" line="t1A9-b1601D-sl4">
        <param key="gtfs.route_name" value="492"/>
        <param key="gtfs.trip_headsign" value="West: El Monte Station"/>
    </vehicle>
    <vehicle id="t20D-b15F9A-sl4" route="t1A9-b1601D-sl4" type="bus" depart="23597" line="t1A9-b1601D-sl4">
        <param key="gtfs.route_name" value="492"/>
        <param key="gtfs.trip_headsign" value="West: El Monte Station"/>
    </vehicle>
    <vehicle id="t212-b15F99-sl4" route="t212-b15F99-sl4" type="bus" depart="20580" line="t212-b15F99-sl4">
        <param key="gtfs.route_name" value="492"/>
        <param key="gtfs.trip_headsign" value="East: Montclair Transit Center"/>
    </vehicle>
    <vehicle id="t221-b16022-sl4" route="t1A9-b1601D-sl4" type="bus" depart="24797" line="t1A9-b1601D-sl4">
        <param key="gtfs.route_name" value="492"/>
        <param key="gtfs.trip_headsign" value="West: El Monte Station"/>
    </vehicle>
    <vehicle id="t258-b1601D-sl4" route="t212-b15F99-sl4" type="bus" depart="22500" line="t212-b15F99-sl4">
        <param key="gtfs.route_name" value="492"/>
        <param key="gtfs.trip_headsign" value="East: Montclair Transit Center"/>
    </vehicle>
    <vehicle id="t25D-b16024-sl4" route="t1A9-b1601D-sl4" type="bus" depart="26117" line="t1A9-b1601D-sl4">
        <param key="gtfs.route_name" value="492"/>
        <param key="gtfs.trip_headsign" value="West: El Monte Station"/>
    </vehicle>
    <vehicle id="t26C-b1601E-sl4" route="t212-b15F99-sl4" type="bus" depart="23700" line="t212-b15F99-sl4">
        <param key="gtfs.route_name" value="492"/>
        <param key="gtfs.trip_headsign" value="East: Montclair Transit Center"/>
    </vehicle>
    <vehicle id="t271-b15FE0-sl4" route="t1A9-b1601D-sl4" type="bus" depart="27317" line="t1A9-b1601D-sl4">
        <param key="gtfs.route_name" value="492"/>
        <param key="gtfs.trip_headsign" value="West: El Monte Station"/>
    </vehicle>
    <vehicle id="t280-b16021-sl4" route="t212-b15F99-sl4" type="bus" depart="24900" line="t212-b15F99-sl4">
        <param key="gtfs.route_name" value="492"/>
        <param key="gtfs.trip_headsign" value="East: Montclair Transit Center"/>
    </vehicle>
    <vehicle id="t286-b15F9D-sl4" route="t1A9-b1601D-sl4" type="bus" depart="28577" line="t1A9-b1601D-sl4">
        <param key="gtfs.route_name" value="492"/>
        <param key="gtfs.trip_headsign" value="West: El Monte Station"/>
    </vehicle>
    <vehicle id="t2BC-b15F9A-sl4" route="t212-b15F99-sl4" type="bus" depart="26160" line="t212-b15F99-sl4">
        <param key="gtfs.route_name" value="492"/>
        <param key="gtfs.trip_headsign" value="East: Montclair Transit Center"/>
    </vehicle>
    <vehicle id="t2C3-b16025-sl4" route="t1A9-b1601D-sl4" type="bus" depart="30107" line="t1A9-b1601D-sl4">
        <param key="gtfs.route_name" value="492"/>
        <param key="gtfs.trip_headsign" value="West: El Monte Station"/>
    </vehicle>
    <vehicle id="t2D0-b1601F-sl4" route="t212-b15F99-sl4" type="bus" depart="27360" line="t212-b15F99-sl4">
        <param key="gtfs.route_name" value="492"/>
        <param key="gtfs.trip_headsign" value="East: Montclair Transit Center"/>
    </vehicle>
    <vehicle id="t2D7-b16026-sl4" route="t1A9-b1601D-sl4" type="bus" depart="31307" line="t1A9-b1601D-sl4">
        <param key="gtfs.route_name" value="492"/>
        <param key="gtfs.trip_headsign" value="West: El Monte Station"/>
    </vehicle>
    <vehicle id="t2E4-b16022-sl4" route="t212-b15F99-sl4" type="bus" depart="28560" line="t212-b15F99-sl4">
        <param key="gtfs.route_name" value="492"/>
        <param key="gtfs.trip_headsign" value="East: Montclair Transit Center"/>
    </vehicle>
    <vehicle id="t2EA-b15FC9-sl4" route="t1A9-b1601D-sl4" type="bus" depart="32447" line="t1A9-b1601D-sl4">
        <param key="gtfs.route_name" value="492"/>
        <param key="gtfs.trip_headsign" value="West: El Monte Station"/>
    </vehicle>
    <vehicle id="t320-b16024-sl4" route="t212-b15F99-sl4" type="bus" depart="29760" line="t212-b15F99-sl4">
        <param key="gtfs.route_name" value="492"/>
        <param key="gtfs.trip_headsign" value="East: Montclair Transit Center"/>
    </vehicle>
    <vehicle id="t325-b1601C-sl4" route="t1A9-b1601D-sl4" type="bus" depart="33647" line="t1A9-b1601D-sl4">
        <param key="gtfs.route_name" value="492"/>
        <param key="gtfs.trip_headsign" value="West: El Monte Station"/>
    </vehicle>
    <vehicle id="t334-b16023-sl4" route="t212-b15F99-sl4" type="bus" depart="30960" line="t212-b15F99-sl4">
        <param key="gtfs.route_name" value="492"/>
        <param key="gtfs.trip_headsign" value="East: Montclair Transit Center"/>
    </vehicle>
    <vehicle id="t339-b1601D-sl4" route="t1A9-b1601D-sl4" type="bus" depart="34847" line="t1A9-b1601D-sl4">
        <param key="gtfs.route_name" value="492"/>
        <param key="gtfs.trip_headsign" value="West: El Monte Station"/>
    </vehicle>
    <vehicle id="t348-b15F9D-sl4" route="t212-b15F99-sl4" type="bus" depart="32160" line="t212-b15F99-sl4">
        <param key="gtfs.route_name" value="492"/>
        <param key="gtfs.trip_headsign" value="East: Montclair Transit Center"/>
    </vehicle>
    <vehicle id="t34D-b1601E-sl4" route="t1A9-b1601D-sl4" type="bus" depart="36047" line="t1A9-b1601D-sl4">
        <param key="gtfs.route_name" value="492"/>
        <param key="gtfs.trip_headsign" value="West: El Monte Station"/>
    </vehicle>
    <vehicle id="t384-b16025-sl4" route="t212-b15F99-sl4" type="bus" depart="33360" line="t212-b15F99-sl4">
        <param key="gtfs.route_name" value="492"/>
        <param key="gtfs.trip_headsign" value="East: Montclair Transit Center"/>
    </vehicle>
    <vehicle id="t389-b16021-sl4" route="t1A9-b1601D-sl4" type="bus" depart="37367" line="t1A9-b1601D-sl4">
        <param key="gtfs.route_name" value="492"/>
        <param key="gtfs.trip_headsign" value="West: El Monte Station"/>
    </vehicle>
    <vehicle id="t398-b16026-sl4" route="t212-b15F99-sl4" type="bus" depart="34560" line="t212-b15F99-sl4">
        <param key="gtfs.route_name" value="492"/>
        <param key="gtfs.trip_headsign" value="East: Montclair Transit Center"/>
    </vehicle>
    <vehicle id="t39D-b16017-sl4" route="t1A9-b1601D-sl4" type="bus" depart="38567" line="t1A9-b1601D-sl4">
        <param key="gtfs.route_name" value="492"/>
        <param key="gtfs.trip_headsign" value="West: El Monte Station"/>
    </vehicle>
    <vehicle id="t3AC-b15FC9-sl4" route="t212-b15F99-sl4" type="bus" depart="35760" line="t212-b15F99-sl4">
        <param key="gtfs.route_name" value="492"/>
        <param key="gtfs.trip_headsign" value="East: Montclair Transit Center"/>
    </vehicle>
    <vehicle id="t3B1-b16020-sl4" route="t1A9-b1601D-sl4" type="bus" depart="39767" line="t1A9-b1601D-sl4">
        <param key="gtfs.route_name" value="492"/>
        <param key="gtfs.trip_headsign" value="West: El Monte Station"/>
    </vehicle>
    <vehicle id="t3E8-b1601C-sl4" route="t212-b15F99-sl4" type="bus" depart="36960" line="t212-b15F99-sl4">
        <param key="gtfs.route_name" value="492"/>
        <param key="gtfs.trip_headsign" value="East: Montclair Transit Center"/>
    </vehicle>
    <vehicle id="t3ED-b1601F-sl4" route="t1A9-b1601D-sl4" type="bus" depart="40967" line="t1A9-b1601D-sl4">
        <param key="gtfs.route_name" value="492"/>
        <param key="gtfs.trip_headsign" value="West: El Monte Station"/>
    </vehicle>
    <vehicle id="t3FC-b1601D-sl4" route="t212-b15F99-sl4" type="bus" depart="38160" line="t212-b15F99-sl4">
        <param key="gtfs.route_name" value="492"/>
        <param key="gtfs.trip_headsign" value="East: Montclair Transit Center"/>
    </vehicle>
    <vehicle id="t401-b16022-sl4" route="t1A9-b1601D-sl4" type="bus" depart="42167" line="t1A9-b1601D-sl4">
        <param key="gtfs.route_name" value="492"/>
        <param key="gtfs.trip_headsign" value="West: El Monte Station"/>
    </vehicle>
    <vehicle id="t410-b1601E-sl4" route="t212-b15F99-sl4" type="bus" depart="39360" line="t212-b15F99-sl4">
        <param key="gtfs.route_name" value="492"/>
        <param key="gtfs.trip_headsign" value="East: Montclair Transit Center"/>
    </vehicle>
    <vehicle id="t415-b16027-sl4" route="t1A9-b1601D-sl4" type="bus" depart="43367" line="t1A9-b1601D-sl4">
        <param key="gtfs.route_name" value="492"/>
        <param key="gtfs.trip_headsign" value="West: El Monte Station"/>
    </vehicle>
    <vehicle id="t44C-b16021-sl4" route="t212-b15F99-sl4" type="bus" depart="40560" line="t212-b15F99-sl4">
        <param key="gtfs.route_name" value="492"/>
        <param key="gtfs.trip_headsign" value="East: Montclair Transit Center"/>
    </vehicle>
    <vehicle id="t451-b1600F-sl4" route="t1A9-b1601D-sl4" type="bus" depart="44507" line="t1A9-b1601D-sl4">
        <param key="gtfs.route_name" value="492"/>
        <param key="gtfs.trip_headsign" value="West: El Monte Station"/>
    </vehicle>
    <vehicle id="t460-b16017-sl4" route="t212-b15F99-sl4" type="bus" depart="41760" line="t212-b15F99-sl4">
        <param key="gtfs.route_name" value="492"/>
        <param key="gtfs.trip_headsign" value="East: Montclair Transit Center"/>
    </vehicle>
    <vehicle id="t465-b15F9D-sl4" route="t1A9-b1601D-sl4" type="bus" depart="45707" line="t1A9-b1601D-sl4">
        <param key="gtfs.route_name" value="492"/>
        <param key="gtfs.trip_headsign" value="West: El Monte Station"/>
    </vehicle>
    <vehicle id="t474-b16020-sl4" route="t212-b15F99-sl4" type="bus" depart="42960" line="t212-b15F99-sl4">
        <param key="gtfs.route_name" value="492"/>
        <param key="gtfs.trip_headsign" value="East: Montclair Transit Center"/>
    </vehicle>
    <vehicle id="t479-b16028-sl4" route="t1A9-b1601D-sl4" type="bus" depart="46907" line="t1A9-b1601D-sl4">
        <param key="gtfs.route_name" value="492"/>
        <param key="gtfs.trip_headsign" value="West: El Monte Station"/>
    </vehicle>
    <vehicle id="t4B0-b1601F-sl4" route="t212-b15F99-sl4" type="bus" depart="44160" line="t212-b15F99-sl4">
        <param key="gtfs.route_name" value="492"/>
        <param key="gtfs.trip_headsign" value="East: Montclair Transit Center"/>
    </vehicle>
    <vehicle id="t4B5-b15FDE-sl4" route="t1A9-b1601D-sl4" type="bus" depart="48167" line="t1A9-b1601D-sl4">
        <param key="gtfs.route_name" value="492"/>
        <param key="gtfs.trip_headsign" value="West: El Monte Station"/>
    </vehicle>
    <vehicle id="t4C4-b16022-sl4" route="t212-b15F99-sl4" type="bus" depart="45360" line="t212-b15F99-sl4">
        <param key="gtfs.route_name" value="492"/>
        <param key="gtfs.trip_headsign" value="East: Montclair Transit Center"/>
    </vehicle>
    <vehicle id="t4C9-b16029-sl4" route="t1A9-b1601D-sl4" type="bus" depart="49367" line="t1A9-b1601D-sl4">
        <param key="gtfs.route_name" value="492"/>
        <param key="gtfs.trip_headsign" value="West: El Monte Station"/>
    </vehicle>
    <vehicle id="t4D8-b16027-sl4" route="t212-b15F99-sl4" type="bus" depart="46560" line="t212-b15F99-sl4">
        <param key="gtfs.route_name" value="492"/>
        <param key="gtfs.trip_headsign" value="East: Montclair Transit Center"/>
    </vehicle>
    <vehicle id="t4DD-b1602A-sl4" route="t1A9-b1601D-sl4" type="bus" depart="50567" line="t1A9-b1601D-sl4">
        <param key="gtfs.route_name" value="492"/>
        <param key="gtfs.trip_headsign" value="West: El Monte Station"/>
    </vehicle>
    <vehicle id="t514-b1600F-sl4" route="t212-b15F99-sl4" type="bus" depart="47760" line="t212-b15F99-sl4">
        <param key="gtfs.route_name" value="492"/>
        <param key="gtfs.trip_headsign" value="East: Montclair Transit Center"/>
    </vehicle>
    <vehicle id="t519-b15FA0-sl4" route="t1A9-b1601D-sl4" type="bus" depart="51827" line="t1A9-b1601D-sl4">
        <param key="gtfs.route_name" value="492"/>
        <param key="gtfs.trip_headsign" value="West: El Monte Station"/>
    </vehicle>
    <vehicle id="t528-b15F9D-sl4" route="t212-b15F99-sl4" type="bus" depart="48960" line="t212-b15F99-sl4">
        <param key="gtfs.route_name" value="492"/>
        <param key="gtfs.trip_headsign" value="East: Montclair Transit Center"/>
    </vehicle>
    <vehicle id="t52D-b1602B-sl4" route="t1A9-b1601D-sl4" type="bus" depart="53027" line="t1A9-b1601D-sl4">
        <param key="gtfs.route_name" value="492"/>
        <param key="gtfs.trip_headsign" value="West: El Monte Station"/>
    </vehicle>
    <vehicle id="t53C-b16028-sl4" route="t212-b15F99-sl4" type="bus" depart="50160" line="t212-b15F99-sl4">
        <param key="gtfs.route_name" value="492"/>
        <param key="gtfs.trip_headsign" value="East: Montclair Transit Center"/>
    </vehicle>
    <vehicle id="t541-b1602E-sl4" route="t1A9-b1601D-sl4" type="bus" depart="54227" line="t1A9-b1601D-sl4">
        <param key="gtfs.route_name" value="492"/>
        <param key="gtfs.trip_headsign" value="West: El Monte Station"/>
    </vehicle>
    <vehicle id="t578-b1602D-sl4" route="t212-b15F99-sl4" type="bus" depart="51360" line="t212-b15F99-sl4">
        <param key="gtfs.route_name" value="492"/>
        <param key="gtfs.trip_headsign" value="East: Montclair Transit Center"/>
    </vehicle>
    <vehicle id="t57D-b16030-sl4" route="t1A9-b1601D-sl4" type="bus" depart="55607" line="t1A9-b1601D-sl4">
        <param key="gtfs.route_name" value="492"/>
        <param key="gtfs.trip_headsign" value="West: El Monte Station"/>
    </vehicle>
    <vehicle id="t58C-b16029-sl4" route="t212-b15F99-sl4" type="bus" depart="52560" line="t212-b15F99-sl4">
        <param key="gtfs.route_name" value="492"/>
        <param key="gtfs.trip_headsign" value="East: Montclair Transit Center"/>
    </vehicle>
    <vehicle id="t591-b16031-sl4" route="t1A9-b1601D-sl4" type="bus" depart="56807" line="t1A9-b1601D-sl4">
        <param key="gtfs.route_name" value="492"/>
        <param key="gtfs.trip_headsign" value="West: El Monte Station"/>
    </vehicle>
    <vehicle id="t5A0-b1602A-sl4" route="t212-b15F99-sl4" type="bus" depart="53760" line="t212-b15F99-sl4">
        <param key="gtfs.route_name" value="492"/>
        <param key="gtfs.trip_headsign" value="East: Montclair Transit Center"/>
    </vehicle>
    <vehicle id="t5A5-b15FAF-sl4" route="t1A9-b1601D-sl4" type="bus" depart="58007" line="t1A9-b1601D-sl4">
        <param key="gtfs.route_name" value="492"/>
        <param key="gtfs.trip_headsign" value="West: El Monte Station"/>
    </vehicle>
    <vehicle id="t5DC-b15FA0-sl4" route="t212-b15F99-sl4" type="bus" depart="54960" line="t212-b15F99-sl4">
        <param key="gtfs.route_name" value="492"/>
        <param key="gtfs.trip_headsign" value="East: Montclair Transit Center"/>
    </vehicle>
    <vehicle id="t5E1-b16033-sl4" route="t1A9-b1601D-sl4" type="bus" depart="59207" line="t1A9-b1601D-sl4">
        <param key="gtfs.route_name" value="492"/>
        <param key="gtfs.trip_headsign" value="West: El Monte Station"/>
    </vehicle>
    <vehicle id="t5F0-b1602B-sl4" route="t212-b15F99-sl4" type="bus" depart="56160" line="t212-b15F99-sl4">
        <param key="gtfs.route_name" value="492"/>
        <param key="gtfs.trip_headsign" value="East: Montclair Transit Center"/>
    </vehicle>
    <vehicle id="t5F5-b16027-sl4" route="t1A9-b1601D-sl4" type="bus" depart="60407" line="t1A9-b1601D-sl4">
        <param key="gtfs.route_name" value="492"/>
        <param key="gtfs.trip_headsign" value="West: El Monte Station"/>
    </vehicle>
    <vehicle id="t604-b1602E-sl4" route="t212-b15F99-sl4" type="bus" depart="57360" line="t212-b15F99-sl4">
        <param key="gtfs.route_name" value="492"/>
        <param key="gtfs.trip_headsign" value="East: Montclair Transit Center"/>
    </vehicle>
    <vehicle id="t609-b1600D-sl4" route="t1A9-b1601D-sl4" type="bus" depart="61607" line="t1A9-b1601D-sl4">
        <param key="gtfs.route_name" value="492"/>
        <param key="gtfs.trip_headsign" value="West: El Monte Station"/>
    </vehicle>
    <vehicle id="t640-b1602C-sl4" route="t212-b15F99-sl4" type="bus" depart="58620" line="t212-b15F99-sl4">
        <param key="gtfs.route_name" value="492"/>
        <param key="gtfs.trip_headsign" value="East: Montclair Transit Center"/>
    </vehicle>
    <vehicle id="t645-b15F99-sl4" route="t1A9-b1601D-sl4" type="bus" depart="62987" line="t1A9-b1601D-sl4">
        <param key="gtfs.route_name" value="492"/>
        <param key="gtfs.trip_headsign" value="West: El Monte Station"/>
    </vehicle>
    <vehicle id="t654-b16030-sl4" route="t212-b15F99-sl4" type="bus" depart="59820" line="t212-b15F99-sl4">
        <param key="gtfs.route_name" value="492"/>
        <param key="gtfs.trip_headsign" value="East: Montclair Transit Center"/>
    </vehicle>
    <vehicle id="t659-b16028-sl4" route="t1A9-b1601D-sl4" type="bus" depart="64187" line="t1A9-b1601D-sl4">
        <param key="gtfs.route_name" value="492"/>
        <param key="gtfs.trip_headsign" value="West: El Monte Station"/>
    </vehicle>
    <vehicle id="t668-b16031-sl4" route="t212-b15F99-sl4" type="bus" depart="61020" line="t212-b15F99-sl4">
        <param key="gtfs.route_name" value="492"/>
        <param key="gtfs.trip_headsign" value="East: Montclair Transit Center"/>
    </vehicle>
    <vehicle id="t66D-b1602D-sl4" route="t1A9-b1601D-sl4" type="bus" depart="65387" line="t1A9-b1601D-sl4">
        <param key="gtfs.route_name" value="492"/>
        <param key="gtfs.trip_headsign" value="West: El Monte Station"/>
    </vehicle>
    <vehicle id="t6A4-b16013-sl4" route="t212-b15F99-sl4" type="bus" depart="62160" line="t212-b15F99-sl4">
        <param key="gtfs.route_name" value="492"/>
        <param key="gtfs.trip_headsign" value="East: Montclair Transit Center"/>
    </vehicle>
    <vehicle id="t6A9-b16029-sl4" route="t1A9-b1601D-sl4" type="bus" depart="66647" line="t1A9-b1601D-sl4">
        <param key="gtfs.route_name" value="492"/>
        <param key="gtfs.trip_headsign" value="West: El Monte Station"/>
    </vehicle>
    <vehicle id="t6B8-b16033-sl4" route="t212-b15F99-sl4" type="bus" depart="63360" line="t212-b15F99-sl4">
        <param key="gtfs.route_name" value="492"/>
        <param key="gtfs.trip_headsign" value="East: Montclair Transit Center"/>
    </vehicle>
    <vehicle id="t6BD-b1602A-sl4" route="t1A9-b1601D-sl4" type="bus" depart="67847" line="t1A9-b1601D-sl4">
        <param key="gtfs.route_name" value="492"/>
        <param key="gtfs.trip_headsign" value="West: El Monte Station"/>
    </vehicle>
    <vehicle id="t6CC-b16027-sl4" route="t212-b15F99-sl4" type="bus" depart="64560" line="t212-b15F99-sl4">
        <param key="gtfs.route_name" value="492"/>
        <param key="gtfs.trip_headsign" value="East: Montclair Transit Center"/>
    </vehicle>
    <vehicle id="t6D1-b1600B-sl4" route="t1A9-b1601D-sl4" type="bus" depart="69047" line="t1A9-b1601D-sl4">
        <param key="gtfs.route_name" value="492"/>
        <param key="gtfs.trip_headsign" value="West: El Monte Station"/>
    </vehicle>
    <vehicle id="t708-b15F99-sl4" route="t212-b15F99-sl4" type="bus" depart="65760" line="t212-b15F99-sl4">
        <param key="gtfs.route_name" value="492"/>
        <param key="gtfs.trip_headsign" value="East: Montclair Transit Center"/>
    </vehicle>
    <vehicle id="t70D-b16032-sl4" route="t1A9-b1601D-sl4" type="bus" depart="69707" line="t1A9-b1601D-sl4">
        <param key="gtfs.route_name" value="492"/>
        <param key="gtfs.trip_headsign" value="West: El Monte Station"/>
    </vehicle>
    <vehicle id="t71C-b16007-sl4" route="t212-b15F99-sl4" type="bus" depart="66960" line="t212-b15F99-sl4">
        <param key="gtfs.route_name" value="492"/>
        <param key="gtfs.trip_headsign" value="East: Montclair Transit Center"/>
    </vehicle>
    <vehicle id="t721-b1602E-sl4" route="t1A9-b1601D-sl4" type="bus" depart="70907" line="t1A9-b1601D-sl4">
        <param key="gtfs.route_name" value="492"/>
        <param key="gtfs.trip_headsign" value="West: El Monte Station"/>
    </vehicle>
    <vehicle id="t730-b16008-sl4" route="t212-b15F99-sl4" type="bus" depart="68160" line="t212-b15F99-sl4">
        <param key="gtfs.route_name" value="492"/>
        <param key="gtfs.trip_headsign" value="East: Montclair Transit Center"/>
    </vehicle>
    <vehicle id="t735-b1602C-sl4" route="t1A9-b1601D-sl4" type="bus" depart="72107" line="t1A9-b1601D-sl4">
        <param key="gtfs.route_name" value="492"/>
        <param key="gtfs.trip_headsign" value="West: El Monte Station"/>
    </vehicle>
    <vehicle id="t76C-b16029-sl4" route="t212-b15F99-sl4" type="bus" depart="69300" line="t212-b15F99-sl4">
        <param key="gtfs.route_name" value="492"/>
        <param key="gtfs.trip_headsign" value="East: Montclair Transit Center"/>
    </vehicle>
    <vehicle id="t771-b15FA5-sl4" route="t1A9-b1601D-sl4" type="bus" depart="73127" line="t1A9-b1601D-sl4">
        <param key="gtfs.route_name" value="492"/>
        <param key="gtfs.trip_headsign" value="West: El Monte Station"/>
    </vehicle>
    <vehicle id="t78A-b1602A-sl4" route="t212-b15F99-sl4" type="bus" depart="71100" line="t212-b15F99-sl4">
        <param key="gtfs.route_name" value="492"/>
        <param key="gtfs.trip_headsign" value="East: Montclair Transit Center"/>
    </vehicle>
    <vehicle id="t78F-b1602F-sl4" route="t1A9-b1601D-sl4" type="bus" depart="74927" line="t1A9-b1601D-sl4">
        <param key="gtfs.route_name" value="492"/>
        <param key="gtfs.trip_headsign" value="West: El Monte Station"/>
    </vehicle>
    <vehicle id="t7D0-b16032-sl4" route="t212-b15F99-sl4" type="bus" depart="72900" line="t212-b15F99-sl4">
        <param key="gtfs.route_name" value="492"/>
        <param key="gtfs.trip_headsign" value="East: Montclair Transit Center"/>
    </vehicle>
    <vehicle id="t7D5-b15FAC-sl4" route="t1A9-b1601D-sl4" type="bus" depart="76472" line="t1A9-b1601D-sl4">
        <param key="gtfs.route_name" value="492"/>
        <param key="gtfs.trip_headsign" value="West: El Monte Station"/>
    </vehicle>
    <vehicle id="t7EE-b1602C-sl4" route="t212-b15F99-sl4" type="bus" depart="74700" line="t212-b15F99-sl4">
        <param key="gtfs.route_name" value="492"/>
        <param key="gtfs.trip_headsign" value="East: Montclair Transit Center"/>
    </vehicle>
    <vehicle id="t7F8-b15F99-sl4" route="t1A9-b1601D-sl4" type="bus" depart="78572" line="t1A9-b1601D-sl4">
        <param key="gtfs.route_name" value="492"/>
        <param key="gtfs.trip_headsign" value="West: El Monte Station"/>
    </vehicle>
    <vehicle id="t834-b16009-sl4" route="t212-b15F99-sl4" type="bus" depart="76500" line="t212-b15F99-sl4">
        <param key="gtfs.route_name" value="492"/>
        <param key="gtfs.trip_headsign" value="East: Montclair Transit Center"/>
    </vehicle>
    <vehicle id="t843-b15F96-sl4" route="t1A9-b1601D-sl4" type="bus" depart="80672" line="t1A9-b1601D-sl4">
        <param key="gtfs.route_name" value="492"/>
        <param key="gtfs.trip_headsign" value="West: El Monte Station"/>
    </vehicle>
    <vehicle id="t852-b1602F-sl4" route="t212-b15F99-sl4" type="bus" depart="78300" line="t212-b15F99-sl4">
        <param key="gtfs.route_name" value="492"/>
        <param key="gtfs.trip_headsign" value="East: Montclair Transit Center"/>
    </vehicle>
    <vehicle id="t861-b16032-sl4" route="t1A9-b1601D-sl4" type="bus" depart="82472" line="t1A9-b1601D-sl4">
        <param key="gtfs.route_name" value="492"/>
        <param key="gtfs.trip_headsign" value="West: El Monte Station"/>
    </vehicle>
</routes>
